<?xml version='1.0' encoding='utf-8'?>
<routes><flow id="flow_0" begin="0" end="20000" period="10.0" departLane="best" departSpeed="random" from_="308054423#3" to="-1229018624" /><flow id="flow_1" begin="0" end="20000" period="10.0" departLane="best" departSpeed="random" from_="-937527315#11" to="-937527314" /><flow id="flow_2" begin="0" end="20000" period="10.0" departLane="best" departSpeed="random" from_="337138429#0" to="321958786#4" /><flow id="flow_3" begin="0" end="20000" period="10.0" departLane="best" departSpeed="random" from_="937527314" to="-310762330#4" /><flow id="flow_4" begin="0" end="20000" period="10.0" departLane="best" departSpeed="random" from_="1029579555" to="-1229018635#2" /><flow id="flow_5" begin="0" end="20000" period="10.0" departLane="best" departSpeed="random" from_="-337354538" to="1032449149#0" /><flow id="flow_6" begin="0" end="20000" period="10.0" departLane="best" departSpeed="random" from_="-1032449149#3" to="-644418441#0" /><flow id="flow_7" begin="0" end="20000" period="10.0" departLane="best" departSpeed="random" from_="310762325#0" to="1229018629" /><flow id="flow_8" begin="0" end="20000" period="10.0" departLane="best" departSpeed="random" from_="-337354539#0" to="272514053" /><flow id="flow_9" begin="0" end="20000" period="10.0" departLane="best" departSpeed="random" from_="547357074#0" to="-1029579555" /><flow id="flow_10" begin="0" end="20000" period="10.0" departLane="best" departSpeed="random" from_="547357074#0" to="337138424#1" /><flow id="flow_11" begin="0" end="20000" period="10.0" departLane="best" departSpeed="random" from_="-937527328#0" to="-337138429#1" /><flow id="flow_12" begin="0" end="20000" period="10.0" departLane="best" departSpeed="random" from_="937527325" to="1023794819" /><flow id="flow_13" begin="0" end="20000" period="10.0" departLane="best" departSpeed="random" from_="-1309425621#0" to="-312550764#2" /><flow id="flow_14" begin="0" end="20000" period="10.0" departLane="best" departSpeed="random" from_="644418441#0" to="308054420#2" /><flow id="flow_15" begin="0" end="20000" period="10.0" departLane="best" departSpeed="random" from_="547357074#0" to="337138429#3" /><flow id="flow_16" begin="0" end="20000" period="10.0" departLane="best" departSpeed="random" from_="1035131044#0" to="937541343#2" /><flow id="flow_17" begin="0" end="20000" period="10.0" departLane="best" departSpeed="random" from_="1023794818#0" to="1229018635#3" /><flow id="flow_18" begin="0" end="20000" period="10.0" departLane="best" departSpeed="random" from_="57009975#0" to="308054423#3" /><flow id="flow_19" begin="0" end="20000" period="10.0" departLane="best" departSpeed="random" from_="782887373#0" to="1279838358" /><flow id="flow_20" begin="0" end="20000" period="10.0" departLane="best" departSpeed="random" from_="321958786#2" to="-1309425621#0" /><flow id="flow_21" begin="0" end="20000" period="10.0" departLane="best" departSpeed="random" from_="-337354539#3" to="-937527325" /><flow id="flow_22" begin="0" end="20000" period="10.0" departLane="best" departSpeed="random" from_="-1279838358" to="-937527315#12" /><flow id="flow_23" begin="0" end="20000" period="10.0" departLane="best" departSpeed="random" from_="-272514055" to="-937527318#1" /><flow id="flow_24" begin="0" end="20000" period="10.0" departLane="best" departSpeed="random" from_="308054423#1" to="1026755234#5" /><flow id="flow_25" begin="0" end="20000" period="10.0" departLane="best" departSpeed="random" from_="1023641969#3" to="-644418442#1" /><flow id="flow_26" begin="0" end="20000" period="10.0" departLane="best" departSpeed="random" from_="-937527313#2" to="937527321" /><flow id="flow_27" begin="0" end="20000" period="10.0" departLane="best" departSpeed="random" from_="310762325#0" to="308054420#4" /><flow id="flow_28" begin="0" end="20000" period="10.0" departLane="best" departSpeed="random" from_="-337138423#1" to="337138429#3" /><flow id="flow_29" begin="0" end="20000" period="10.0" departLane="best" departSpeed="random" from_="-337138423#0" to="1026766570" /><flow id="flow_30" begin="0" end="20000" period="10.0" departLane="best" departSpeed="random" from_="937541343#6" to="312550764#1" /><flow id="flow_31" begin="0" end="20000" period="10.0" departLane="best" departSpeed="random" from_="1212685515#1" to="337138423#1" /><flow id="flow_32" begin="0" end="20000" period="10.0" departLane="best" departSpeed="random" from_="644418441#0" to="359327994" /><flow id="flow_33" begin="0" end="20000" period="10.0" departLane="best" departSpeed="random" from_="-337354539#3" to="-1229018635#3" /><flow id="flow_34" begin="0" end="20000" period="10.0" departLane="best" departSpeed="random" from_="-937527316#7" to="-937527316#6" /><flow id="flow_35" begin="0" end="20000" period="10.0" departLane="best" departSpeed="random" from_="-337138429#7" to="937527323" /><flow id="flow_36" begin="0" end="20000" period="10.0" departLane="best" departSpeed="random" from_="785842362#0" to="1023641969#10" /><flow id="flow_37" begin="0" end="20000" period="10.0" departLane="best" departSpeed="random" from_="310762325#0" to="1029410063#3" /><flow id="flow_38" begin="0" end="20000" period="10.0" departLane="best" departSpeed="random" from_="937527315#7" to="1031928627#8" /><flow id="flow_39" begin="0" end="20000" period="10.0" departLane="best" departSpeed="random" from_="-937527313#2" to="-937527315#6" /><flow id="flow_40" begin="0" end="20000" period="10.0" departLane="best" departSpeed="random" from_="1212685515#3" to="-937527316#4" /><flow id="flow_41" begin="0" end="20000" period="10.0" departLane="best" departSpeed="random" from_="1229018635#3" to="937527315#4" /><flow id="flow_42" begin="0" end="20000" period="10.0" departLane="best" departSpeed="random" from_="1026755239#0" to="-937527313#0" /><flow id="flow_43" begin="0" end="20000" period="10.0" departLane="best" departSpeed="random" from_="937541343#9" to="1032449149#0" /><flow id="flow_44" begin="0" end="20000" period="10.0" departLane="best" departSpeed="random" from_="-1279838364" to="-1309425621#0" /><flow id="flow_45" begin="0" end="20000" period="10.0" departLane="best" departSpeed="random" from_="-310762330#1" to="310762330#1" /><flow id="flow_46" begin="0" end="20000" period="10.0" departLane="best" departSpeed="random" from_="368759103#0" to="1030935827" /><flow id="flow_47" begin="0" end="20000" period="10.0" departLane="best" departSpeed="random" from_="-1229018645#5" to="1026766571" /><flow id="flow_48" begin="0" end="20000" period="10.0" departLane="best" departSpeed="random" from_="937541343#9" to="1212685515#3" /><flow id="flow_49" begin="0" end="20000" period="10.0" departLane="best" departSpeed="random" from_="937527330#1" to="785842362#2" /><flow id="flow_50" begin="0" end="20000" period="10.0" departLane="best" departSpeed="random" from_="-1032449147#2" to="337138427" /><flow id="flow_51" begin="0" end="20000" period="10.0" departLane="best" departSpeed="random" from_="312550764#2" to="1229018629" /><flow id="flow_52" begin="0" end="20000" period="10.0" departLane="best" departSpeed="random" from_="-937527313#2" to="312550764#2" /><flow id="flow_53" begin="0" end="20000" period="10.0" departLane="best" departSpeed="random" from_="-310762330#3" to="1031928627#0" /><flow id="flow_54" begin="0" end="20000" period="10.0" departLane="best" departSpeed="random" from_="1030743544" to="937527328#0" /><flow id="flow_55" begin="0" end="20000" period="10.0" departLane="best" departSpeed="random" from_="785842362#0" to="-937527316#4" /><flow id="flow_56" begin="0" end="20000" period="10.0" departLane="best" departSpeed="random" from_="1031928629#0" to="-547357074#0" /><flow id="flow_57" begin="0" end="20000" period="10.0" departLane="best" departSpeed="random" from_="937527315#6" to="937527313#2" /><flow id="flow_58" begin="0" end="20000" period="10.0" departLane="best" departSpeed="random" from_="-937527316#0" to="312550764#1" /><flow id="flow_59" begin="0" end="20000" period="10.0" departLane="best" departSpeed="random" from_="272514058" to="-337138429#0" /><flow id="flow_60" begin="0" end="20000" period="10.0" departLane="best" departSpeed="random" from_="359327006" to="1229018629" /><flow id="flow_61" begin="0" end="20000" period="10.0" departLane="best" departSpeed="random" from_="359327993" to="1212685516#1" /><flow id="flow_62" begin="0" end="20000" period="10.0" departLane="best" departSpeed="random" from_="-1029579556#0" to="1023641969#2" /><flow id="flow_63" begin="0" end="20000" period="10.0" departLane="best" departSpeed="random" from_="-1032449148#1" to="937527317" /><flow id="flow_64" begin="0" end="20000" period="10.0" departLane="best" departSpeed="random" from_="785842362#1" to="54818904#4" /><flow id="flow_65" begin="0" end="20000" period="10.0" departLane="best" departSpeed="random" from_="-937527316#4" to="-1342927908#1" /><flow id="flow_66" begin="0" end="20000" period="10.0" departLane="best" departSpeed="random" from_="785842362#0" to="937527325" /><flow id="flow_67" begin="0" end="20000" period="10.0" departLane="best" departSpeed="random" from_="-1279838364" to="1032449147#2" /><flow id="flow_68" begin="0" end="20000" period="10.0" departLane="best" departSpeed="random" from_="-1229020595#0" to="359327006" /><flow id="flow_69" begin="0" end="20000" period="10.0" departLane="best" departSpeed="random" from_="359327010" to="-337138424#0" /><flow id="flow_70" begin="0" end="20000" period="10.0" departLane="best" departSpeed="random" from_="1031928627#3" to="1229018635#0" /><flow id="flow_71" begin="0" end="20000" period="10.0" departLane="best" departSpeed="random" from_="-937527313#2" to="937527313#2" /><flow id="flow_72" begin="0" end="20000" period="10.0" departLane="best" departSpeed="random" from_="1029579555" to="-644418442#1" /><flow id="flow_73" begin="0" end="20000" period="10.0" departLane="best" departSpeed="random" from_="1035131044#0" to="337138429#3" /><flow id="flow_74" begin="0" end="20000" period="10.0" departLane="best" departSpeed="random" from_="-337138425#3" to="-937542077" /><flow id="flow_75" begin="0" end="20000" period="10.0" departLane="best" departSpeed="random" from_="937541343#8" to="312550764#6" /><flow id="flow_76" begin="0" end="20000" period="10.0" departLane="best" departSpeed="random" from_="1030743538#1" to="1198442729#1" /><flow id="flow_77" begin="0" end="20000" period="10.0" departLane="best" departSpeed="random" from_="-312550764#1" to="-937527315#1" /><flow id="flow_78" begin="0" end="20000" period="10.0" departLane="best" departSpeed="random" from_="-937527327" to="1279838364" /><flow id="flow_79" begin="0" end="20000" period="10.0" departLane="best" departSpeed="random" from_="-337354539#4" to="-937527313#1" /><flow id="flow_80" begin="0" end="20000" period="10.0" departLane="best" departSpeed="random" from_="-1279838354" to="310762330#2" /><flow id="flow_81" begin="0" end="20000" period="10.0" departLane="best" departSpeed="random" from_="-337354539#3" to="937527315#7" /><flow id="flow_82" begin="0" end="20000" period="10.0" departLane="best" departSpeed="random" from_="782887373#0" to="-272514059" /><flow id="flow_83" begin="0" end="20000" period="10.0" departLane="best" departSpeed="random" from_="-339271943" to="321958786#0" /><flow id="flow_84" begin="0" end="20000" period="10.0" departLane="best" departSpeed="random" from_="-337138430#0" to="-337138425#0" /><flow id="flow_85" begin="0" end="20000" period="10.0" departLane="best" departSpeed="random" from_="937527316#7" to="1279838354" /><flow id="flow_86" begin="0" end="20000" period="10.0" departLane="best" departSpeed="random" from_="1031928627#2" to="368759103#1" /><flow id="flow_87" begin="0" end="20000" period="10.0" departLane="best" departSpeed="random" from_="547357074#0" to="-57009975#0" /><flow id="flow_88" begin="0" end="20000" period="10.0" departLane="best" departSpeed="random" from_="-272514053" to="1031928626" /><flow id="flow_89" begin="0" end="20000" period="10.0" departLane="best" departSpeed="random" from_="1029579555" to="1031928629#3" /><flow id="flow_90" begin="0" end="20000" period="10.0" departLane="best" departSpeed="random" from_="337138429#0" to="321958786#2" /><flow id="flow_91" begin="0" end="20000" period="10.0" departLane="best" departSpeed="random" from_="937541343#3" to="-312550764#3" /><flow id="flow_92" begin="0" end="20000" period="10.0" departLane="best" departSpeed="random" from_="1026755239#1" to="1023794820" /><flow id="flow_93" begin="0" end="20000" period="10.0" departLane="best" departSpeed="random" from_="782887373#0" to="-937527315#7" /><flow id="flow_94" begin="0" end="20000" period="10.0" departLane="best" departSpeed="random" from_="-337138425#2" to="1031928627#4" /><flow id="flow_95" begin="0" end="20000" period="10.0" departLane="best" departSpeed="random" from_="1029579555" to="-937527318#1" /><flow id="flow_96" begin="0" end="20000" period="10.0" departLane="best" departSpeed="random" from_="-547357074#1" to="937527316#6" /><flow id="flow_97" begin="0" end="20000" period="10.0" departLane="best" departSpeed="random" from_="1030743540#1-AddedOnRampEdge" to="785842362#2" /><flow id="flow_98" begin="0" end="20000" period="10.0" departLane="best" departSpeed="random" from_="1198442729#1" to="-1342927908#1" /><flow id="flow_99" begin="0" end="20000" period="10.0" departLane="best" departSpeed="random" from_="983563029#0" to="57009975#1" /><flow id="flow_100" begin="0" end="20000" period="10.0" departLane="best" departSpeed="random" from_="937527329" to="937527316#7" /><flow id="flow_101" begin="0" end="20000" period="10.0" departLane="best" departSpeed="random" from_="644418442#0" to="-337354539#0" /><flow id="flow_102" begin="0" end="20000" period="10.0" departLane="best" departSpeed="random" from_="1031928627#5-AddedOffRampEdge" to="-644418442#1" /><flow id="flow_103" begin="0" end="20000" period="10.0" departLane="best" departSpeed="random" from_="1026755239#1" to="-1342927908#1" /><flow id="flow_104" begin="0" end="20000" period="10.0" departLane="best" departSpeed="random" from_="1023794818#0" to="937541343#8" /><flow id="flow_105" begin="0" end="20000" period="10.0" departLane="best" departSpeed="random" from_="-937527313#2" to="368759103#1" /><flow id="flow_106" begin="0" end="20000" period="10.0" departLane="best" departSpeed="random" from_="1030935827" to="1030935827" /><flow id="flow_107" begin="0" end="20000" period="10.0" departLane="best" departSpeed="random" from_="937527325" to="983563022#0" /><flow id="flow_108" begin="0" end="20000" period="10.0" departLane="best" departSpeed="random" from_="1212685515#1" to="337138425#3" /><flow id="flow_109" begin="0" end="20000" period="10.0" departLane="best" departSpeed="random" from_="-321958786#2" to="-937527328#0" /><flow id="flow_110" begin="0" end="20000" period="10.0" departLane="best" departSpeed="random" from_="937527329" to="1279838358" /><flow id="flow_111" begin="0" end="20000" period="10.0" departLane="best" departSpeed="random" from_="1035131044#0" to="337354539#4" /><flow id="flow_112" begin="0" end="20000" period="10.0" departLane="best" departSpeed="random" from_="-1229018645#5" to="1279838364" /><flow id="flow_113" begin="0" end="20000" period="10.0" departLane="best" departSpeed="random" from_="1031928629#0" to="782887373#1" /><flow id="flow_114" begin="0" end="20000" period="10.0" departLane="best" departSpeed="random" from_="-321958786#3" to="937527330#1" /><flow id="flow_115" begin="0" end="20000" period="10.0" departLane="best" departSpeed="random" from_="-1279838358" to="-547357074#0" /><flow id="flow_116" begin="0" end="20000" period="10.0" departLane="best" departSpeed="random" from_="1342927908#0" to="321958786#3" /><flow id="flow_117" begin="0" end="20000" period="10.0" departLane="best" departSpeed="random" from_="-339271943" to="-321958786#2" /><flow id="flow_118" begin="0" end="20000" period="10.0" departLane="best" departSpeed="random" from_="937527314" to="-937527315#6" /><flow id="flow_119" begin="0" end="20000" period="10.0" departLane="best" departSpeed="random" from_="1342927908#0" to="308054423#3" /><flow id="flow_120" begin="0" end="20000" period="10.0" departLane="best" departSpeed="random" from_="1029410063#3" to="1279838364" /><flow id="flow_121" begin="0" end="20000" period="10.0" departLane="best" departSpeed="random" from_="1031928640#0" to="937527318#1" /><flow id="flow_122" begin="0" end="20000" period="10.0" departLane="best" departSpeed="random" from_="-337138428#0" to="337138425#3" /><flow id="flow_123" begin="0" end="20000" period="10.0" departLane="best" departSpeed="random" from_="-339271943" to="1029410063#3" /><flow id="flow_124" begin="0" end="20000" period="10.0" departLane="best" departSpeed="random" from_="310762330#2" to="-937527328#3" /><flow id="flow_125" begin="0" end="20000" period="10.0" departLane="best" departSpeed="random" from_="-937527317" to="339271943" /><flow id="flow_126" begin="0" end="20000" period="10.0" departLane="best" departSpeed="random" from_="-1279838354" to="1031928627#7" /><flow id="flow_127" begin="0" end="20000" period="10.0" departLane="best" departSpeed="random" from_="983563029#0" to="983563022#0" /><flow id="flow_128" begin="0" end="20000" period="10.0" departLane="best" departSpeed="random" from_="-1279838354" to="-644418442#1" /><flow id="flow_129" begin="0" end="20000" period="10.0" departLane="best" departSpeed="random" from_="-937527313#2" to="937527318#0" /><flow id="flow_130" begin="0" end="20000" period="10.0" departLane="best" departSpeed="random" from_="785842362#2" to="937527313#2" /><flow id="flow_131" begin="0" end="20000" period="10.0" departLane="best" departSpeed="random" from_="1023641969#2" to="-337138429#7" /><flow id="flow_132" begin="0" end="20000" period="10.0" departLane="best" departSpeed="random" from_="57009975#0" to="337138425#0" /><flow id="flow_133" begin="0" end="20000" period="10.0" departLane="best" departSpeed="random" from_="272514059" to="937541343#9" /><flow id="flow_134" begin="0" end="20000" period="10.0" departLane="best" departSpeed="random" from_="310762325#0" to="-1029579555" /><flow id="flow_135" begin="0" end="20000" period="10.0" departLane="best" departSpeed="random" from_="54818904#1" to="-937527328#3" /><flow id="flow_136" begin="0" end="20000" period="10.0" departLane="best" departSpeed="random" from_="310762330#0" to="937527322" /><flow id="flow_137" begin="0" end="20000" period="10.0" departLane="best" departSpeed="random" from_="-314215531#0" to="-321958786#0" /><flow id="flow_138" begin="0" end="20000" period="10.0" departLane="best" departSpeed="random" from_="-272514059" to="1229018645#5" /><flow id="flow_139" begin="0" end="20000" period="10.0" departLane="best" departSpeed="random" from_="-937527315#10" to="308054420#2" /><flow id="flow_140" begin="0" end="20000" period="10.0" departLane="best" departSpeed="random" from_="337138425#1" to="-644418441#0" /><flow id="flow_141" begin="0" end="20000" period="10.0" departLane="best" departSpeed="random" from_="308054423#0" to="-937527316#4" /><flow id="flow_142" begin="0" end="20000" period="10.0" departLane="best" departSpeed="random" from_="1031928627#6" to="937527315#7" /><flow id="flow_143" begin="0" end="20000" period="10.0" departLane="best" departSpeed="random" from_="644418441#0" to="-312550764#1" /><flow id="flow_144" begin="0" end="20000" period="10.0" departLane="best" departSpeed="random" from_="1029579555" to="-937527318#1" /><flow id="flow_145" begin="0" end="20000" period="10.0" departLane="best" departSpeed="random" from_="-1030599303#1" to="359327007-AddedOnRampEdge" /><flow id="flow_146" begin="0" end="20000" period="10.0" departLane="best" departSpeed="random" from_="308054423#10" to="-937527316#3" /><flow id="flow_147" begin="0" end="20000" period="10.0" departLane="best" departSpeed="random" from_="337138429#3" to="1229018635#3" /><flow id="flow_148" begin="0" end="20000" period="10.0" departLane="best" departSpeed="random" from_="1029579555" to="-1029579556#0" /><flow id="flow_149" begin="0" end="20000" period="10.0" departLane="best" departSpeed="random" from_="-1279838354" to="937527315#10" /><flow id="flow_150" begin="0" end="20000" period="10.0" departLane="best" departSpeed="random" from_="937527315#2" to="1229018629" /><flow id="flow_151" begin="0" end="20000" period="10.0" departLane="best" departSpeed="random" from_="57009975#0" to="1279838364" /><flow id="flow_152" begin="0" end="20000" period="10.0" departLane="best" departSpeed="random" from_="-314215539" to="-337138423#0" /><flow id="flow_153" begin="0" end="20000" period="10.0" departLane="best" departSpeed="random" from_="-937527316#4" to="937527315#5" /><flow id="flow_154" begin="0" end="20000" period="10.0" departLane="best" departSpeed="random" from_="368759103#1" to="785842362#2" /><flow id="flow_155" begin="0" end="20000" period="10.0" departLane="best" departSpeed="random" from_="937527315#12" to="-644418442#1" /><flow id="flow_156" begin="0" end="20000" period="10.0" departLane="best" departSpeed="random" from_="-547357074#1" to="-312550764#6" /><flow id="flow_157" begin="0" end="20000" period="10.0" departLane="best" departSpeed="random" from_="359327993" to="937527315#10" /><flow id="flow_158" begin="0" end="20000" period="10.0" departLane="best" departSpeed="random" from_="1026766571" to="308054423#8" /><flow id="flow_159" begin="0" end="20000" period="10.0" departLane="best" departSpeed="random" from_="-321958786#1" to="937527317" /><flow id="flow_160" begin="0" end="20000" period="10.0" departLane="best" departSpeed="random" from_="782887374#0" to="937541343#3" /><flow id="flow_161" begin="0" end="20000" period="10.0" departLane="best" departSpeed="random" from_="547357074#0" to="937527314" /><flow id="flow_162" begin="0" end="20000" period="10.0" departLane="best" departSpeed="random" from_="-1032449149#3" to="337354538" /><flow id="flow_163" begin="0" end="20000" period="10.0" departLane="best" departSpeed="random" from_="-937527324" to="937527317" /><flow id="flow_164" begin="0" end="20000" period="10.0" departLane="best" departSpeed="random" from_="547357073#0" to="902042656#2" /><flow id="flow_165" begin="0" end="20000" period="10.0" departLane="best" departSpeed="random" from_="547357074#0" to="-937527316#5" /><flow id="flow_166" begin="0" end="20000" period="10.0" departLane="best" departSpeed="random" from_="359327994" to="-314215531#0" /><flow id="flow_167" begin="0" end="20000" period="10.0" departLane="best" departSpeed="random" from_="785842362#0" to="785842362#1" /><flow id="flow_168" begin="0" end="20000" period="10.0" departLane="best" departSpeed="random" from_="-337354539#0" to="54818722#2" /><flow id="flow_169" begin="0" end="20000" period="10.0" departLane="best" departSpeed="random" from_="1030935829" to="-937527330#2" /><flow id="flow_170" begin="0" end="20000" period="10.0" departLane="best" departSpeed="random" from_="368759103#1" to="-937527315#10" /><flow id="flow_171" begin="0" end="20000" period="10.0" departLane="best" departSpeed="random" from_="-1032449149#3" to="-57009975#0" /><flow id="flow_172" begin="0" end="20000" period="10.0" departLane="best" departSpeed="random" from_="-937527323" to="902042656#2" /><flow id="flow_173" begin="0" end="20000" period="10.0" departLane="best" departSpeed="random" from_="937527328#3" to="-937527321" /><flow id="flow_174" begin="0" end="20000" period="10.0" departLane="best" departSpeed="random" from_="308054423#3" to="1030599303#0" /><flow id="flow_175" begin="0" end="20000" period="10.0" departLane="best" departSpeed="random" from_="937541343#1" to="1229018624" /><flow id="flow_176" begin="0" end="20000" period="10.0" departLane="best" departSpeed="random" from_="937527317" to="-321958786#0" /><flow id="flow_177" begin="0" end="20000" period="10.0" departLane="best" departSpeed="random" from_="937527330#1" to="-547357074#0" /><flow id="flow_178" begin="0" end="20000" period="10.0" departLane="best" departSpeed="random" from_="937527328#0" to="-937527316#5" /><flow id="flow_179" begin="0" end="20000" period="10.0" departLane="best" departSpeed="random" from_="-310762330#1" to="1031928627#0" /><flow id="flow_180" begin="0" end="20000" period="10.0" departLane="best" departSpeed="random" from_="337138429#0" to="-983563029#2" /><flow id="flow_181" begin="0" end="20000" period="10.0" departLane="best" departSpeed="random" from_="272514054" to="1035131044#1" /><flow id="flow_182" begin="0" end="20000" period="10.0" departLane="best" departSpeed="random" from_="1026652639#1" to="1279838354" /><flow id="flow_183" begin="0" end="20000" period="10.0" departLane="best" departSpeed="random" from_="-937527313#0" to="337138425#2" /><flow id="flow_184" begin="0" end="20000" period="10.0" departLane="best" departSpeed="random" from_="-1029579556#0" to="937527316#7" /><flow id="flow_185" begin="0" end="20000" period="10.0" departLane="best" departSpeed="random" from_="1035131044#0" to="337138427" /><flow id="flow_186" begin="0" end="20000" period="10.0" departLane="best" departSpeed="random" from_="337138429#3" to="321958786#1" /><flow id="flow_187" begin="0" end="20000" period="10.0" departLane="best" departSpeed="random" from_="-983563022#1" to="-272514059" /><flow id="flow_188" begin="0" end="20000" period="10.0" departLane="best" departSpeed="random" from_="310762330#0" to="1023641969#8" /><flow id="flow_189" begin="0" end="20000" period="10.0" departLane="best" departSpeed="random" from_="-937527316#7" to="751872167#1" /><flow id="flow_190" begin="0" end="20000" period="10.0" departLane="best" departSpeed="random" from_="337138425#2" to="-937527329" /><flow id="flow_191" begin="0" end="20000" period="10.0" departLane="best" departSpeed="random" from_="-937527316#5" to="1030743540#0" /><flow id="flow_192" begin="0" end="20000" period="10.0" departLane="best" departSpeed="random" from_="1026755239#1" to="-937527328#0" /><flow id="flow_193" begin="0" end="20000" period="10.0" departLane="best" departSpeed="random" from_="-312550764#5" to="1030743540#1-AddedOnRampEdge" /><flow id="flow_194" begin="0" end="20000" period="10.0" departLane="best" departSpeed="random" from_="937527317" to="321958786#4" /><flow id="flow_195" begin="0" end="20000" period="10.0" departLane="best" departSpeed="random" from_="937527315#2" to="308054423#10" /><flow id="flow_196" begin="0" end="20000" period="10.0" departLane="best" departSpeed="random" from_="-937527316#1" to="1229018634" /><flow id="flow_197" begin="0" end="20000" period="10.0" departLane="best" departSpeed="random" from_="-1029579556#0" to="-937527324" /><flow id="flow_198" begin="0" end="20000" period="10.0" departLane="best" departSpeed="random" from_="1029579555" to="1279838364" /><flow id="flow_199" begin="0" end="20000" period="10.0" departLane="best" departSpeed="random" from_="310762325#0" to="1031928629#2" /><flow id="flow_200" begin="0" end="20000" period="10.0" departLane="best" departSpeed="random" from_="1030743540#0" to="-644418442#1" /><flow id="flow_201" begin="0" end="20000" period="10.0" departLane="best" departSpeed="random" from_="1031928627#3" to="937527315#6" /><flow id="flow_202" begin="0" end="20000" period="10.0" departLane="best" departSpeed="random" from_="368759103#1" to="-337354539#1" /><flow id="flow_203" begin="0" end="20000" period="10.0" departLane="best" departSpeed="random" from_="-1279838364" to="1198442729#1" /><flow id="flow_204" begin="0" end="20000" period="10.0" departLane="best" departSpeed="random" from_="308054423#0" to="1023794818#0" /><flow id="flow_205" begin="0" end="20000" period="10.0" departLane="best" departSpeed="random" from_="54818904#2" to="339271943" /><flow id="flow_206" begin="0" end="20000" period="10.0" departLane="best" departSpeed="random" from_="310762330#4" to="-937527315#1" /><flow id="flow_207" begin="0" end="20000" period="10.0" departLane="best" departSpeed="random" from_="-337138425#3" to="-1229018624" /><flow id="flow_208" begin="0" end="20000" period="10.0" departLane="best" departSpeed="random" from_="-547357074#1" to="1031928638#0" /><flow id="flow_209" begin="0" end="20000" period="10.0" departLane="best" departSpeed="random" from_="644418442#0" to="-310762330#0" /><flow id="flow_210" begin="0" end="20000" period="10.0" departLane="best" departSpeed="random" from_="1029410062#1" to="310762330#2" /><flow id="flow_211" begin="0" end="20000" period="10.0" departLane="best" departSpeed="random" from_="-337138425#3" to="337138424#1" /><flow id="flow_212" begin="0" end="20000" period="10.0" departLane="best" departSpeed="random" from_="1031928628#1" to="-937527315#5" /><flow id="flow_213" begin="0" end="20000" period="10.0" departLane="best" departSpeed="random" from_="310762325#1" to="-1029579555" /><flow id="flow_214" begin="0" end="20000" period="10.0" departLane="best" departSpeed="random" from_="337354539#0" to="359327007" /><flow id="flow_215" begin="0" end="20000" period="10.0" departLane="best" departSpeed="random" from_="-272514059" to="1030935828" /><flow id="flow_216" begin="0" end="20000" period="10.0" departLane="best" departSpeed="random" from_="-337138424#1" to="937527329" /><flow id="flow_217" begin="0" end="20000" period="10.0" departLane="best" departSpeed="random" from_="1031928638#2" to="-1342927908#1" /><flow id="flow_218" begin="0" end="20000" period="10.0" departLane="best" departSpeed="random" from_="-547357074#1" to="751872167#1" /><flow id="flow_219" begin="0" end="20000" period="10.0" departLane="best" departSpeed="random" from_="1030935827" to="547357073#1" /><flow id="flow_220" begin="0" end="20000" period="10.0" departLane="best" departSpeed="random" from_="310762330#1" to="937541343#9" /><flow id="flow_221" begin="0" end="20000" period="10.0" departLane="best" departSpeed="random" from_="1342927908#0" to="937527326" /><flow id="flow_222" begin="0" end="20000" period="10.0" departLane="best" departSpeed="random" from_="937527314" to="308054423#1" /><flow id="flow_223" begin="0" e