<?xml version="1.0" encoding="UTF-8"?>

<!-- generated on 2025-04-10 15:46:03 by Eclipse SUMO duarouter Version 1.22.0
<duarouterConfiguration xmlns:xsi="http://www.w3.org/2001/XMLSchema-instance" xsi:noNamespaceSchemaLocation="http://sumo.dlr.de/xsd/duarouterConfiguration.xsd">

    <input>
        <net-file value="E:\ProgramFiles\Sumo\tools\2025-04-09-14-19-12\osm.net.xml.gz"/>
        <route-files value="E:\ProgramFiles\Sumo\tools\2025-04-09-14-19-12\osm.passenger.trips.xml"/>
    </input>

    <output>
        <output-file value="E:\ProgramFiles\Sumo\tools\2025-04-09-14-19-12\osm.rou.xml"/>
    </output>

</duarouterConfiguration>
-->

<routes xmlns:xsi="http://www.w3.org/2001/XMLSchema-instance" xsi:noNamespaceSchemaLocation="http://sumo.dlr.de/xsd/routes_file.xsd">
    <vType id="veh_passenger" vClass="passenger"/>
    <vehicle id="veh1" type="veh_passenger" depart="3.44" departLane="best">
        <route edges="785842362#2 1029410063#2 1026755239#0 1026755238#2 1029410062#1-AddedOnRampEdge 1029410062#1 -1229018624 -312550764#6 -312550764#5 -312550764#3"/>
    </vehicle>
    <vehicle id="veh2" type="veh_passenger" depart="6.88" departLane="best">
        <route edges="1031928627#3-AddedOnRampEdge 1031928627#3 1031928627#3-AddedOffRampEdge 1031928627#4 1031928627#5 1031928627#5-AddedOffRampEdge 1031928627#6 1031928627#7 1023794819 54818904#2 54818904#3 54818904#4 54818904#5 1212685515#1 1212685515#2 1212685515#3 368759105#1 1031928639#1 368759103#0 368759103#1 368759103#3 1031928637#0 1030743538#1 1031928638#0 -1229018635#3"/>
    </vehicle>
    <vehicle id="veh3" type="veh_passenger" depart="10.32" departLane="best" departSpeed="max">
        <route edges="-547357074#1 1229020595#0 1035131044#1 937541343#9 1030743537#0 54818904#1 54818904#2 54818904#3 54818904#4 54818904#5 1212685515#1 1212685515#2 1212685515#3"/>
    </vehicle>
    <vehicle id="veh5" type="veh_passenger" depart="17.19" departLane="best">
        <route edges="-57009975#1 1030599303#0 337138429#1 308054423#3 308054423#8 308054423#9 308054423#10"/>
    </vehicle>
    <vehicle id="veh6" type="veh_passenger" depart="20.63" departLane="best" departSpeed="max">
        <route edges="57009975#0 57009975#1 -1029579555"/>
    </vehicle>
    <vehicle id="veh7" type="veh_passenger" depart="24.07" departLane="best" departSpeed="max">
        <route edges="57009975#0 1030599303#0 337138429#1 337138429#3 337138430#0 337138430#1 337138428#0 337138428#1"/>
    </vehicle>
    <vehicle id="veh8" type="veh_passenger" depart="27.51" departLane="best">
        <route edges="1224960562 937541343#0 937541343#1 937541343#2 937541343#3 937541343#4 937541343#6 937541343#7 547357073#0 -1229020595#0 -547357074#0"/>
    </vehicle>
    <vehicle id="veh9" type="veh_passenger" depart="30.95" departLane="best">
        <route edges="937527325 937527315#6 937527315#7 937527315#8 937527315#10 937527315#11 937527315#12 937527315#13 937527327 308054423#10 1023794818#0 1031928638#0 1031928638#2 1224960562 937541343#0 937541343#1 937541343#2 937541343#3 937541343#4 1026652639#1 1026652639#2 1026652639#3 983563029#0 1029410063#2"/>
    </vehicle>
    <vehicle id="veh10" type="veh_passenger" depart="34.38" departLane="best">
        <route edges="-272514055 -312550764#6 -312550764#5 -312550764#3 -312550764#2 -312550764#1 -312550764#0 1229018634 1229018635#0 1229018635#3 1031928638#2 1031928639#1 368759103#0 -937542077 -314215539"/>
    </vehicle>
    <vehicle id="veh12" type="veh_passenger" depart="41.26" departLane="best" departSpeed="max">
        <route edges="57009975#0 57009975#1 1029579556#0 308054423#1 308054423#3 308054423#8 308054423#9 308054423#10 1023794818#0 1031928638#0 1031928638#2 308054420#1 308054420#2 308054420#3 308054420#4 1030935828 1031928627#3-AddedOnRampEdge 1031928627#3 1031928627#3-AddedOffRampEdge 1031928627#4 359327006 1198776682 359327007-AddedOnRampEdge 359327007"/>
    </vehicle>
    <vehicle id="veh13" type="veh_passenger" depart="44.70" departLane="best">
        <route edges="-1229018624 -312550764#6 -312550764#5 -312550764#3 -312550764#2 -312550764#1 -312550764#0 1229018634 1229018635#0 1229018635#3 1031928638#2 1224960562 937541343#0 937541343#1 937541343#2 937541343#3"/>
    </vehicle>
    <vehicle id="veh14" type="veh_passenger" depart="48.14" departLane="best">
        <route edges="1030743538#1 1031928638#0 1031928638#2 308054420#1 308054420#2 308054420#3 308054420#4 1030935828 1031928627#3-AddedOnRampEdge 1031928627#3 1031928627#3-AddedOffRampEdge 782887373#0 1279838358"/>
    </vehicle>
    <vehicle id="veh15" type="veh_passenger" depart="51.58" departLane="best" departSpeed="max">
        <route edges="644418442#0 1030743538#1 1031928638#0 -1229018635#3 -1229018635#2 -1229018634"/>
    </vehicle>
    <vehicle id="veh16" type="veh_passenger" depart="55.01" departLane="best" departSpeed="max">
        <route edges="785842362#0 785842362#1 785842362#2 1029410063#2 1026755239#0 1026755239#1 1212685515#3 368759105#1 308054420#1 308054420#2 308054420#3 308054420#4"/>
    </vehicle>
    <vehicle id="veh18" type="veh_passenger" depart="61.89" departLane="best" departSpeed="max">
        <route edges="-937527313#2 -937527313#1 -937527313#0 308054423#9 308054423#10 1023794818#0 1031928638#0 1031928638#2 1224960562 937541343#0 937541343#1 937541343#2 937541343#3 937541343#4 1026652639#1 1026652639#2 1026652639#3"/>
    </vehicle>
    <vehicle id="veh19" type="veh_passenger" depart="65.33" departLane="best" departSpeed="max">
        <route edges="-1279838364 1026652639#3 983563029#0 1029410063#2 1026755239#0 1026755239#1 1212685515#3 368759105#1 1031928639#1 368759103#0 368759103#1 368759103#3 1031928637#0 1023641969#2 308054423#8 308054423#9 -937527327 -937527315#13 -937527315#12 -937527315#11 937527316#0 937527316#1 937527316#2 937527316#3 937527316#4 937527316#5 937527316#6"/>
    </vehicle>
    <vehicle id="veh20" type="veh_passenger" depart="68.77" departLane="best">
        <route edges="310762330#4 312550764#6 1229018624 1026755234#1 -337138428#1 -337138428#0 -337138430#1 -337138430#0 -337138429#7 1023641969#8 1023641969#10"/>
    </vehicle>
    <vehicle id="veh21" type="veh_passenger" depart="72.21" departLane="best">
        <route edges="310762325#1 1031928627#0 1031928627#2 1031928627#3-AddedOnRampEdge 1031928627#3 1031928627#3-AddedOffRampEdge 1031928627#4 1031928627#5 1031928627#5-AddedOffRampEdge 1031928627#6 1031928627#7 1031928627#8 1031928627#10 1030743540#0 1030743540#1-AddedOnRampEdge 1030743540#1"/>
    </vehicle>
    <vehicle id="veh22" type="veh_passenger" depart="75.65" departLane="best" departSpeed="max">
        <route edges="1029579555 1029579556#0 308054423#1 308054423#3 308054423#8 308054423#9 -937527327 -937527315#13 -937527315#12 -937527315#11 -937527315#10 -937527315#9 -937527315#7 -937527315#6 -937527315#5 -937527315#4 -937527315#3"/>
    </vehicle>
    <vehicle id="veh24" type="veh_passenger" depart="82.52" departLane="best" departSpeed="max">
        <route edges="-337138425#3 -337138425#2 -337138425#1 -337138425#0 -337138430#1 -337138430#0 -337138429#7 308054423#3 308054423#8 308054423#9 308054423#10 1023794818#0 1031928638#0 1031928638#2 308054420#1 308054420#2 308054420#3 308054420#4 1030935828 1031928627#3-AddedOnRampEdge 1031928627#3 1031928627#3-AddedOffRampEdge 1031928627#4 359327006 1198776682 359327007-AddedOnRampEdge 359327007"/>
    </vehicle>
    <vehicle id="veh25" type="veh_passenger" depart="85.96" departLane="best">
        <route edges="-337138425#0 -337138430#1 -337138430#0 -337138429#7 308054423#3 308054423#8 308054423#9 308054423#10 1023794818#0 1031928638#0 1031928638#2 1224960562 937541343#0 937541343#1 937541343#2 937541343#3 937541343#4 937541343#6 937541343#7 937541343#8 937541343#9 1030743537#0 1031928627#10 1030743540#0 1030743540#1-AddedOnRampEdge"/>
    </vehicle>
    <vehicle id="veh26" type="veh_passenger" depart="89.40" departLane="best">
        <route edges="54818904#5 1212685515#1 1212685515#2 1212685515#3 368759105#1 1031928639#1 368759103#0 -937542077 314215531#1 314215531#2"/>
    </vehicle>
    <vehicle id="veh27" type="veh_passenger" depart="92.84" departLane="best" departSpeed="max">
        <route edges="1342927908#0 785842362#2 1029410063#2 1026755239#0 1026755238#2 1029410062#1-AddedOnRampEdge 1029410062#1 1026755234#1 -337138428#1 -337138428#0 337138425#0 337138425#1 337138425#2 337138425#3"/>
    </vehicle>
    <vehicle id="veh28" type="veh_passenger" depart="96.28" departLane="best" departSpeed="max">
        <route edges="785842362#0 785842362#1 785842362#2 1029410063#2 1029410063#3 937541343#3 937541343#4 937541343#6 937541343#7 547357073#0 547357073#1"/>
    </vehicle>
    <vehicle id="veh29" type="veh_passenger" depart="99.71" departLane="best" departSpeed="max">
        <route edges="-937527313#2 -937527313#1 -937527313#0 308054423#9 308054423#10 1023794818#0 1031928638#0 -1229018635#3 -1229018636"/>
    </vehicle>
    <vehicle id="veh30" type="veh_passenger" depart="103.15" departLane="best">
        <route edges="-983563029#2"/>
    </vehicle>
    <vehicle id="veh31" type="veh_passenger" depart="106.59" departLane="best" departSpeed="max">
        <route edges="-339271943 308054420#4 308054420#5 1031928628#1 1026766572 1031928640#0 1031928639#1 368759103#0 368759103#1 368759103#3 1031928637#0 1023641969#2 308054423#8 308054423#9 -937527327 -937527315#13 -937527315#12 -937527315#11 937527316#0 937527316#1 937527316#2 937527316#3 937527316#4 937527323"/>
    </vehicle>
    <vehicle id="veh32" type="veh_passenger" depart="110.03" departLane="best" departSpeed="max">
        <route edges="785842362#0 785842362#1 785842362#2 1029410063#2 1026755239#0 1026755238#2"/>
    </vehicle>
    <vehicle id="veh33" type="veh_passenger" depart="113.47" departLane="best">
        <route edges="-312550764#0 1229018634 1229018635#0 1229018635#3 1031928638#2 308054420#1 308054420#2 308054420#3 308054420#4 1030935828 1031928627#3-AddedOnRampEdge 1031928627#3"/>
    </vehicle>
    <vehicle id="veh34" type="veh_passenger" depart="116.91" departLane="best">
        <route edges="937527315#2 937527315#3 937527315#4 937527315#5 937527315#6 937527315#7 937527315#8 937527315#10 937527315#11 937527315#12 937527315#13 937527327 308054423#10 1023794818#0"/>
    </vehicle>
    <vehicle id="veh35" type="veh_passenger" depart="120.35" departLane="best" departSpeed="max">
        <route edges="308054423#0 308054423#1 308054423#3 308054423#8 308054423#9 -937527327 -937527315#13 -937527315#12"/>
    </vehicle>
    <vehicle id="veh36" type="veh_passenger" depart="123.78" departLane="best">
        <route edges="1031928627#0 1031928628#1 1026766572 1031928640#0 1031928639#1 368759103#0 368759103#1 368759103#3 1031928637#0 1023641969#2 308054423#8 308054423#9 -937527327 -937527315#13 -937527315#12 -937527315#11 -937527315#10 -937527315#9"/>
    </vehicle>
    <vehicle id="veh39" type="veh_passenger" depart="134.10" departLane="best">
        <route edges="937541343#8 937541343#9 1030743537#0 54818904#1 54818904#2 54818904#3 54818904#4 54818904#5 1212685515#1 1212685515#2 1212685515#3 368759105#1 1031928639#1 368759103#0 368759103#1 368759103#3 1023794817#0 751872167#0 -1229018647#2 1229018645#5"/>
    </vehicle>
    <vehicle id="veh42" type="veh_passenger" depart="144.41" departLane="best">
        <route edges="337138423#0 -337354539#2 -337138428#0 -337138430#1 -337138430#0 -337138429#7 308054423#3 308054423#8 308054423#9 308054423#10 902042656#2 751872167#0 -1229018647#2 1229018645#5"/>
    </vehicle>
    <vehicle id="veh43" type="veh_passenger" depart="147.85" departLane="best">
        <route edges="-937527316#4 -937527316#3 -937527316#2 -937527316#1 -937527316#0 937527315#11 937527315#12 937527315#13 937527327 308054423#10 1023794818#0 1031928638#0 1031928638#2 1031928639#1 368759103#0 -937542077 314215531#1 314215531#2"/>
    </vehicle>
    <vehicle id="veh44" type="veh_passenger" depart="151.29" departLane="best">
        <route edges="-312550764#3 -312550764#2 -312550764#1 -312550764#0 1229018634 1229018635#0 1229018635#3 1031928638#2 1224960562 937541343#0 937541343#1 937541343#2 937541343#3 937541343#4 937541343#6 937541343#7 937541343#8 937541343#9 1030743537#0 54818904#1"/>
    </vehicle>
    <vehicle id="veh45" type="veh_passenger" depart="154.73" departLane="best" departSpeed="max">
        <route edges="1031928629#0 54818904#1 54818904#2 54818904#3 54818904#4 54818904#5 1212685515#1 1212685515#2 1212685515#3 368759105#1 1031928639#1 368759103#0 368759103#1 368759103#3 1031928637#0 1023641969#2 308054423#8 308054423#9 -937527327 -937527315#13 -937527315#12 -937527329 937527328#3"/>
    </vehicle>
    <vehicle id="veh46" type="veh_passenger" depart="158.17" departLane="best" departSpeed="max">
        <route edges="785842362#0 785842362#1 785842362#2 1029410063#2 1026755239#0 1026755239#1 1212685515#3 368759105#1 1031928639#1 368759103#0 368759103#1 368759103#3 1031928637#0 1023641969#2 308054423#8 308054423#9 -937527327 -937527315#13 -937527315#12 -937527329 937527330#1 -937527330#3"/>
    </vehicle>
    <vehicle id="veh49" type="veh_passenger" depart="168.48" departLane="best">
        <route edges="-937527330#1 937527329 937527315#12 937527315#13 937527327 308054423#10 1023794818#0 1031928638#0 1031928638#2 1031928639#1 368759103#0 -937542077 314215531#1 314215531#2"/>
    </vehicle>
    <vehicle id="veh50" type="veh_passenger" depart="171.92" departLane="best">
        <route edges="308054423#8 308054423#9 308054423#10 1023794818#0 1031928638#0 1031928638#2 1224960562 937541343#0 937541343#1 937541343#2 937541343#3 937541343#4 937541343#6 937541343#7 547357073#0 -1229020595#0 -547357074#0"/>
    </vehicle>
    <vehicle id="veh51" type="veh_passenger" depart="175.36" departLane="best">
        <route edges="359327993-AddedOffRampEdge 1198776681 359327994 1031928629#3-AddedOnRampEdge 1031928629#3 1031928628#1 1026766572 1031928640#0 1224960562 937541343#0 937541343#1 937541343#2 937541343#3 937541343#4 937541343#6 937541343#7 547357073#0 -1229020595#0"/>
    </vehicle>
    <vehicle id="veh52" type="veh_passenger" depart="178.80" departLane="best" departSpeed="max">
        <route edges="547357074#0 1229020595#0 1035131044#1 937541343#9 1030743537#0 54818904#1 54818904#2 54818904#3 54818904#4 54818904#5 1212685515#1 1212685515#2 1212685515#3 368759105#1 1031928639#1 368759103#0 368759103#1 368759103#3 1023794817#0 751872167#0 -1229018647#2 1229018645#5"/>
    </vehicle>
    <vehicle id="veh53" type="veh_passenger" depart="182.24" departLane="best">
        <route edges="-1029579556#0 -57009975#1 1030599303#0 337138429#1 308054423#3 308054423#8 308054423#9 308054423#10 1023794818#0 1031928638#0 1031928638#2 1224960562 1029410062#0 1029410062#1-AddedOnRampEdge 1029410062#1"/>
    </vehicle>
    <vehicle id="veh55" type="veh_passenger" depart="189.11" departLane="best" departSpeed="max">
        <route edges="785842362#0 785842362#1 785842362#2 1029410063#2 1026755239#0 1026755239#1 1212685515#3 368759105#1 1031928639#1 368759103#0 368759103#1 368759103#3 1023794817#0 751872167#0 751872167#1"/>
    </vehicle>
    <vehicle id="veh56" type="veh_passenger" depart="192.55" departLane="best" departSpeed="max">
        <route edges="-983563022#1 785842362#1 785842362#2 1029410063#2 1026755239#0 1026755238#2 1029410062#1-AddedOnRampEdge 1029410062#1 -1229018624 -312550764#6"/>
    </vehicle>
    <vehicle id="veh57" type="veh_passenger" depart="195.99" departLane="best" departSpeed="max">
        <route edges="785842362#0 785842362#1 785842362#2 1029410063#2 1026755239#0 1026755239#1 1212685515#3 368759105#1 1031928639#1 368759103#0 368759103#1 368759103#3 1031928637#0 1023641969#2 308054423#8 308054423#9 -937527327 -937527315#13 -937527315#12 -937527315#11 937527316#0 937527326"/>
    </vehicle>
    <vehicle id="veh60" type="veh_passenger" depart="206.31" departLane="best">
        <route edges="368759103#0 368759103#1 368759103#3 1031928637#0 1023641969#2 1023641969#3 -337138429#1 -337138429#0"/>
    </vehicle>
    <vehicle id="veh61" type="veh_passenger" depart="209.74" departLane="best">
        <route edges="1031928629#3 1031928628#1 1026766572 1031928640#0 308054420#1 308054420#2 1279838354"/>
    </vehicle>
    <vehicle id="veh62" type="veh_passenger" depart="213.18" departLane="best">
        <route edges="-937527316#3 -937527316#2 -937527316#1 -937527316#0 937527315#11 937527315#12 937527315#13 937527327 308054423#10 902042656#2"/>
    </vehicle>
    <vehicle id="veh63" type="veh_passenger" depart="216.62" departLane="best">
        <route edges="1031928627#3-AddedOnRampEdge 1031928627#3 1031928627#3-AddedOffRampEdge 1031928627#4 1031928627#5 1031928627#5-AddedOffRampEdge 1031928627#6 1031928627#7 1023794819 54818904#2 54818904#3 54818904#4 54818904#5 1212685515#1 1212685515#2 1212685515#3 368759105#1 1031928639#1 368759103#0 368759103#1 368759103#3 1031928637#0 1023641969#2 308054423#8 308054423#9 -937527327 -937527315#13 -937527315#12 -937527315#11 -937527315#10 -937527315#9 -937527315#7 -937527315#6 -937527315#5 -937527315#4"/>
    </vehicle>
    <vehicle id="veh64" type="veh_passenger" depart="220.06" departLane="best">
        <route edges="1229018634 1229018635#0 1229018635#3 1031928638#2 308054420#1 308054420#2 308054420#3 308054420#4 1030935828 1031928627#3-AddedOnRampEdge 1031928627#3 1031928627#3-AddedOffRampEdge 1031928627#4 359327006 1198776682 359327007-AddedOnRampEdge 359327007"/>
    </vehicle>
    <vehicle id="veh65" type="veh_passenger" depart="223.50" departLane="best">
        <route edges="-337354539#4 -337354539#3 -337354539#2 -337138428#0 -337138430#1 -337138430#0 -337138429#7 308054423#3 308054423#8 308054423#9 308054423#10 1023794818#0 1031928638#0 1031928638#2 1224960562 937541343#0 937541343#1 1026755238#1"/>
    </vehicle>
    <vehicle id="veh66" type="veh_passenger" depart="226.94" departLane="best">
        <route edges="937541343#8 937541343#9 1030743537#0 54818904#1 54818904#2 54818904#3 54818904#4 54818904#5 1212685515#1 1026755238#1 1026755238#2 1029410062#1-AddedOnRampEdge 1029410062#1 -1229018624 -312550764#6 -312550764#5 -312550764#3 272514058 321958786#2"/>
    </vehicle>
    <vehicle id="veh67" type="veh_passenger" depart="230.38" departLane="best">
        <route edges="1031928627#5-AddedOffRampEdge 1031928627#6 1031928627#7 1023794819 54818904#2 54818904#3 54818904#4 54818904#5 1212685515#1 1026755238#1 1026755238#2 1029410062#1-AddedOnRampEdge 1029410062#1 -1229018624 -312550764#6 -310762330#4 -310762330#3 -310762330#1 1229018629"/>
    </vehicle>
    <vehicle id="veh68" type="veh_passenger" depart="233.81" departLane="best">
        <route edges="-314215531#1 -314215531#0 368759103#1 368759103#3 1031928637#0 1023641969#2 308054423#8 308054423#9 -937527327 -937527315#13 -937527315#12 -937527315#11 937527316#0 937527316#1 937527316#2"/>
    </vehicle>
    <vehicle id="veh69" type="veh_passenger" depart="237.25" departLane="best">
        <route edges="1026766572 1031928640#0 1031928639#1 368759103#0 368759103#1 368759103#3 1031928637#0 1023641969#2"/>
    </vehicle>
    <vehicle id="veh70" type="veh_passenger" depart="240.69" departLane="best" departSpeed="max">
        <route edges="785842362#0 785842362#1 785842362#2 1029410063#2 1026755239#0 1026755238#2 1029410062#1-AddedOnRampEdge 1029410062#1 -1229018624 -312550764#6 -310762330#4 -310762330#3 -310762330#1 -310762330#0"/>
    </vehicle>
    <vehicle id="veh71" type="veh_passenger" depart="244.13" departLane="best">
        <route edges="-937527315#1 -937527316#7 -937527316#6 -937527316#5 -937527316#4 -937527316#3 -937527316#2 -937527316#1 -937527316#0 937527315#11 937527315#12 937527315#13 937527327 308054423#10 1023641969#2 1023641969#3 337138429#3 337138430#0 337138430#1 337138428#0 337354539#2 337354539#3 337138424#1"/>
    </vehicle>
    <vehicle id="veh72" type="veh_passenger" depart="247.57" departLane="best" departSpeed="max">
        <route edges="-547357074#1 1229020595#0 1035131044#1 937541343#9 1030743537#0 54818904#1 54818904#2 54818904#3 54818904#4 54818904#5 1212685515#1 1212685515#2 1212685515#3 368759105#1 1031928639#1 368759103#0 368759103#1 368759103#3 1031928637#0 1023641969#2 1023641969#3 -337138429#1 -337138429#0"/>
    </vehicle>
    <vehicle id="veh73" type="veh_passenger" depart="251.01" departLane="best">
        <route edges="1031928629#2 1031928629#3-AddedOnRampEdge 1031928629#3 1031928628#1 1026766572 1031928640#0 1224960562 937541343#0 937541343#1 937541343#2 937541343#3 937541343#4 937541343#6 937541343#7 547357073#0 -1229020595#0 547357074#1"/>
    </vehicle>
    <vehicle id="veh74" type="veh_passenger" depart="254.44" departLane="best" departSpeed="max">
        <route edges="57009975#0 57009975#1 1029579556#0 308054423#1 308054423#3 308054423#8 308054423#9 308054423#10 -644418442#1"/>
    </vehicle>
    <vehicle id="veh75" type="veh_passenger" depart="257.88" departLane="best">
        <route edges="-272514059 -312550764#0 1229018634 1229018635#0 1229018635#3 1031928638#2 1224960562 937541343#0 937541343#1 937541343#2 937541343#3 937541343#4 937541343#6 937541343#7 937541343#8 937541343#9 1030743537#0 54818904#1 54818904#2 1198442729#0 1198442729#1 1031928627#7"/>
    </vehicle>
    <vehicle id="veh78" type="veh_passenger" depart="268.20" departLane="best">
        <route edges="937541343#3 937541343#4 1212685515#1 1212685515#2 1212685515#3 368759105#1 1031928639#1 368759103#0 -937542077 -314215539"/>
    </vehicle>
    <vehicle id="veh80" type="veh_passenger" depart="275.07" departLane="best" departSpeed="max">
        <route edges="785842362#0 785842362#1 785842362#2 1029410063#2 1026755239#0 1026755239#1 1212685515#3 368759105#1 1031928639#1 368759103#0 368759103#1 368759103#3 1031928637#0 1023641969#2 308054423#8 308054423#9 -937527327 -937527315#13 -937527315#12 -937527315#11 -937527315#10 -937527315#9 -937527315#7 -937527315#6 -937527325"/>
    </vehicle>
    <vehicle id="veh81" type="veh_passenger" depart="278.51" departLane="best">
        <route edges="-337138430#1 -337138430#0 -337138429#7 308054423#3 308054423#8 308054423#9 308054423#10 1023794818#0 1031928638#0 1031928638#2 1224960562 937541343#0 937541343#1 937541343#2 937541343#3 937541343#4 937541343#6 937541343#7 937541343#8 937541343#9 1030743537#0 1031928629#2 1031928629#3-AddedOnRampEdge 1031928629#3"/>
    </vehicle>
    <vehicle id="veh82" type="veh_passenger" depart="281.95" departLane="best">
        <route edges="1031928627#3-AddedOnRampEdge 1031928627#3 1031928627#3-AddedOffRampEdge 1031928627#4 1031928627#5 1031928627#5-AddedOffRampEdge 1031928627#6 1031928627#7 1023794819 54818904#2 54818904#3 54818904#4 54818904#5 1212685515#1 1212685515#2 1212685515#3 368759105#1 1031928639#1 368759103#0 368759103#1 368759103#3 1031928637#0 1023641969#2 1023641969#3 1023641969#8 1023641969#10"/>
    </vehicle>
    <vehicle id="veh84" type="veh_passenger" depart="288.83" departLane="best">
        <route edges="983563029#0 1029410063#2 1026755239#0 1026755239#1 1212685515#3 368759105#1 1031928639#1 368759103#0 368759103#1 368759103#3 1023794817#0 751872167#0 751872167#1"/>
    </vehicle>
    <vehicle id="veh85" type="veh_passenger" depart="292.27" departLane="best" departSpeed="max">
        <route edges="785842362#0 785842362#1 785842362#2 1029410063#2 1026755239#0 1026755239#1 1212685515#3 368759105#1 1031928639#1 368759103#0 368759103#1 368759103#3 1031928637#0 1023641969#2 1023641969#3 1023641969#8 -1029579556#0 -57009975#1 -57009975#0"/>
    </vehicle>
    <vehicle id="veh86" type="veh_passenger" depart="295.71" departLane="best">
        <route edges="1031928637#0 1023641969#2 308054423#8 308054423#9 -937527327 -937527315#13 -937527315#12 -937527315#11 -937527315#10 -937527315#9 -937527315#7 -937527315#6 -937527315#5"/>
    </vehicle>
    <vehicle id="veh87" type="veh_passenger" depart="299.14" departLane="best">
        <route edges="1031928627#0 1031928628#1 1026766572 1031928640#0 1031928639#1 368759103#0 368759103#1 368759103#3 1031928637#0 1030743538#1 1031928638#0 -1229018635#3 -1229018635#2 -312550763 -272514055"/>
    </vehicle>
    <vehicle id="veh88" type="veh_passenger" depart="302.58" departLane="best">
        <route edges="1030743538#1 1031928638#0 1031928638#2 1224960562 937541343#0 937541343#1 937541343#2 937541343#3 937541343#4 937541343#6 937541343#7 937541343#8"/>
    </vehicle>
    <vehicle id="veh89" type="veh_passenger" depart="306.02" departLane="best">
        <route edges="-937527316#3 -937527316#2 -937527316#1 -937527316#0 937527315#11 937527315#12 937527315#13 937527327 308054423#10 1023794818#0 1031928638#0 1031928638#2 1224960562 937541343#0 937541343#1 937541343#2 937541343#3 937541343#4 937541343#6 937541343#7 547357073#0 -1229020595#0 547357074#1"/>
    </vehicle>
    <vehicle id="veh90" type="veh_passenger" depart="309.46" departLane="best" departSpeed="max">
        <route edges="1031928629#0 1031928629#2 1031928629#3-AddedOnRampEdge 1031928629#3 1031928627#2 1031928627#3-AddedOnRampEdge 1031928627#3 1031928627#3-AddedOffRampEdge 1031928627#4 1031928627#5 1031928627#5-AddedOffRampEdge"/>
    </vehicle>
    <vehicle id="veh92" type="veh_passenger" depart="316.34" departLane="best" departSpeed="max">
        <route edges="1342927908#0 785842362#2 1029410063#2 1026755239#0 1026755239#1 1212685515#3 368759105#1 308054420#1 308054420#2 308054420#3 339271943"/>
    </vehicle>
    <vehicle id="veh93" type="veh_passenger" depart="319.77" departLane="best" departSpeed="max">
        <route edges="-337138424#1 -337354539#3 -337354539#2 -337138428#0 -337138430#1 -337138430#0 -337138429#7 308054423#3 308054423#8 308054423#9 308054423#10 1023794818#0 1031928638#0 1031928638#2 1224960562 937541343#0 937541343#1 937541343#2 937541343#3 937541343#4 1026652639#1 1026652639#2 1026652639#3 1026652639#4"/>
    </vehicle>
    <vehicle id="veh94" type="veh_passenger" depart="323.21" departLane="best">
        <route edges="-937527330#1 937527329 937527315#12 937527315#13 937527327 308054423#10 1023794818#0 1031928638#0 1031928638#2 308054420#1 308054420#2 308054420#3 308054420#4"/>
    </vehicle>
    <vehicle id="veh95" type="veh_passenger" depart="326.65" departLane="best">
        <route edges="1229018635#3 1031928638#2 308054420#1 308054420#2 308054420#3 308054420#4 1030935828 1031928627#3-AddedOnRampEdge 1031928627#3 1031928627#3-AddedOffRampEdge 1031928627#4 359327006 1198776682 359327007-AddedOnRampEdge"/>
    </vehicle>
    <vehicle id="veh96" type="veh_passenger" depart="330.09" departLane="best" departSpeed="max">
        <route edges="-1229018645#5 -1229018645#4 368759103#3 1031928637#0 1023641969#2 1023641969#3 1023641969#8"/>
    </vehicle>
    <vehicle id="veh97" type="veh_passenger" depart="333.53" departLane="best" departSpeed="max">
        <route edges="1035131044#0 1035131044#1 937541343#9 1030743537#0 1031928629#2 1031928629#3-AddedOnRampEdge 1031928629#3 1031928627#2 1031928627#3-AddedOnRampEdge 1031928627#3 1031928627#3-AddedOffRampEdge 1031928627#4 1031928627#5 1031928627#5-AddedOffRampEdge 782887374#0"/>
    </vehicle>
    <vehicle id="veh98" type="veh_passenger" depart="336.97" departLane="best" departSpeed="max">
        <route edges="-337138424#1 -337354539#3 -337354539#2 -337138428#0 -337138430#1 -337138430#0 -337138429#7 308054423#3 308054423#8 308054423#9 -937527327 -937527315#13 -937527315#12 -937527329 937527330#1 937527330#2"/>
    </vehicle>
    <vehicle id="veh99" type="veh_passenger" depart="340.40" departLane="best" departSpeed="max">
        <route edges="-1279838364 1026652639#3 983563029#0 1029410063#2 1026755239#0 1026755239#1 1212685515#3 368759105#1 1031928639#1 368759103#0 368759103#1 368759103#3 1031928637#0 -644418442#1"/>
    </vehicle>
    <vehicle id="veh100" type="veh_passenger" depart="343.84" departLane="best" departSpeed="max">
        <route edges="308054423#0 308054423#1 337138429#3 337138430#0 337138430#1 337138428#0 337354539#2 337354539#3 337138424#1"/>
    </vehicle>
    <vehicle id="veh101" type="veh_passenger" depart="347.28" departLane="best">
        <route edges="-937527313#1 -937527313#0 308054423#9 308054423#10 1023641969#2 1023641969#3 337138429#3 337138430#0 -337354538 337354539#1 -337138428#0"/>
    </vehicle>
    <vehicle id="veh102" type="veh_passenger" depart="350.72" departLane="best" departSpeed="max">
        <route edges="308054423#0 308054423#1 308054423#3 308054423#8 308054423#9 308054423#10 1023794818#0 1031928638#0 -1229018635#3 -1229018635#2 -1229018634 312550764#0"/>
    </vehicle>
    <vehicle id="veh103" type="veh_passenger" depart="354.16" departLane="best">
        <route edges="1031928627#3-AddedOnRampEdge 1031928627#3 1031928627#3-AddedOffRampEdge 1031928627#4 1031928627#5 1031928627#5-AddedOffRampEdge 1031928627#6 1031928627#7 1023794819 54818904#2 54818904#3 54818904#4 54818904#5 1212685515#1 1212685515#2 1212685515#3 368759105#1 1031928639#1 368759103#0 368759103#1 368759103#3 1031928637#0 1023641969#2 1023641969#3 1023641969#8"/>
    </vehicle>
    <vehicle id="veh104" type="veh_passenger" depart="357.60" departLane="best">
        <route edges="1212685515#3 368759105#1 1031928639#1 368759103#0 368759103#1 368759103#3 1031928637#0 1023641969#2 308054423#8 308054423#9 -937527327 -937527315#13 -937527315#12 -937527315#11 937527316#0 937527316#1 937527318#0"/>
    </vehicle>
    <vehicle id="veh105" type="veh_passenger" depart="361.04" departLane="best" departSpeed="max">