<?xml version="1.0" encoding="UTF-8"?>

<!-- generated on 2025-04-09 16:33:41 by Eclipse SUMO netedit Version 1.22.0
<neteditConfiguration xmlns:xsi="http://www.w3.org/2001/XMLSchema-instance" xsi:noNamespaceSchemaLocation="http://sumo.dlr.de/xsd/neteditConfiguration.xsd">

    <input>
        <sumocfg-file value="E:\ProgramFiles\Sumo\tools\2025-04-09-14-19-12\osm.sumocfg"/>
        <additional-files value=""/>
        <route-files value="E:\ProgramFiles\Sumo\tools\2025-04-09-14-19-12\osm.passenger.trips.xml"/>
        <sumo-net-file value="E:\ProgramFiles\Sumo\tools\2025-04-09-14-19-12\osm.net.xml.gz"/>
    </input>

    <output>
        <output-file value="E:\ProgramFiles\Sumo\tools\2025-04-09-14-19-12\osm.net.xml.gz"/>
        <output.street-names value="true"/>
    </output>

    <processing>
        <geometry.min-radius.fix.railways value="false"/>
        <geometry.max-grade.fix value="false"/>
        <offset.disable-normalization value="true"/>
        <lefthand value="0"/>
    </processing>

    <junctions>
        <no-turnarounds value="true"/>
        <junctions.corner-detail value="5"/>
        <junctions.limit-turn-speed value="5.50"/>
        <rectangular-lane-cut value="0"/>
    </junctions>

    <pedestrian>
        <walkingareas value="0"/>
    </pedestrian>

    <netedit>
        <ignore.routeelements value="false"/>
    </netedit>

</neteditConfiguration>
-->

<net version="1.20" junctionCornerDetail="5" limitTurnSpeed="5.50" xmlns:xsi="http://www.w3.org/2001/XMLSchema-instance" xsi:noNamespaceSchemaLocation="http://sumo.dlr.de/xsd/net_file.xsd">

    <location netOffset="-689190.70,-3115925.45" convBoundary="0.00,0.00,3839.24,4423.35" origBoundary="112.920300,28.102189,113.005505,28.206059" projParameter="+proj=utm +zone=49 +ellps=WGS84 +datum=WGS84 +units=m +no_defs"/>

    <type id="highway.living_street" priority="2" numLanes="1" speed="2.78" disallow="tram rail_urban rail rail_electric rail_fast ship container cable_car subway aircraft wheelchair scooter drone" oneway="0"/>
    <type id="highway.primary" priority="12" numLanes="2" speed="27.78" disallow="tram rail_urban rail rail_electric rail_fast ship container cable_car subway aircraft wheelchair scooter drone" oneway="0"/>
    <type id="highway.primary_link" priority="7" numLanes="1" speed="22.22" disallow="tram rail_urban rail rail_electric rail_fast ship container cable_car subway aircraft wheelchair scooter drone" oneway="0"/>
    <type id="highway.residential" priority="3" numLanes="1" speed="13.89" disallow="tram rail_urban rail rail_electric rail_fast ship container cable_car subway aircraft wheelchair scooter drone" oneway="0"/>
    <type id="highway.secondary" priority="11" numLanes="1" speed="27.78" disallow="tram rail_urban rail rail_electric rail_fast ship container cable_car subway aircraft wheelchair scooter drone" oneway="0"/>
    <type id="highway.secondary_link" priority="6" numLanes="1" speed="22.22" disallow="tram rail_urban rail rail_electric rail_fast ship container cable_car subway aircraft wheelchair scooter drone" oneway="0"/>
    <type id="highway.tertiary" priority="10" numLanes="1" speed="22.22" disallow="tram rail_urban rail rail_electric rail_fast ship container cable_car subway aircraft wheelchair scooter drone" oneway="0"/>
    <type id="highway.unclassified" priority="4" numLanes="1" speed="13.89" disallow="tram rail_urban rail rail_electric rail_fast ship container cable_car subway aircraft wheelchair scooter drone" oneway="0"/>

    <edge id=":1029410062#1-AddedOnRampNode_0" function="internal">
        <lane id=":1029410062#1-AddedOnRampNode_0_0" index="0" speed="27.78" length="8.00" shape="1477.38,1437.29 1469.38,1437.15"/>
    </edge>
    <edge id=":1030743540#1-AddedOnRampNode_0" function="internal">
        <lane id=":1030743540#1-AddedOnRampNode_0_0" index="0" speed="27.78" length="8.00" shape="2104.76,946.16 2104.19,938.18"/>
        <lane id=":1030743540#1-AddedOnRampNode_0_1" index="1" speed="27.78" length="8.00" shape="2107.95,945.93 2107.38,937.95"/>
    </edge>
    <edge id=":1031928627#3-AddedOffRampNode_0" function="internal">
        <lane id=":1031928627#3-AddedOffRampNode_0_0" index="0" speed="27.78" length="8.27" shape="2030.51,1757.72 2030.32,1755.22 2029.42,1753.56 2028.52,1751.89 2028.33,1749.39"/>
        <lane id=":1031928627#3-AddedOffRampNode_0_1" index="1" speed="27.78" length="8.27" shape="2030.51,1757.72 2031.50,1749.78"/>
        <lane id=":1031928627#3-AddedOffRampNode_0_2" index="2" speed="27.78" length="8.27" shape="2033.69,1758.11 2034.68,1750.18"/>
    </edge>
    <edge id=":1031928627#3-AddedOnRampNode_0" function="internal">
        <lane id=":1031928627#3-AddedOnRampNode_0_0" index="0" speed="27.78" length="8.00" shape="1997.88,2019.20 1998.82,2011.26"/>
        <lane id=":1031928627#3-AddedOnRampNode_0_1" index="1" speed="27.78" length="8.00" shape="2001.05,2019.58 2002.00,2011.64"/>
    </edge>
    <edge id=":1031928627#5-AddedOffRampNode_0" function="internal">
        <lane id=":1031928627#5-AddedOffRampNode_0_0" index="0" speed="27.78" length="8.27" shape="2064.34,1546.39 2064.41,1543.94 2063.62,1542.26 2062.75,1540.57 2062.55,1538.07"/>
        <lane id=":1031928627#5-AddedOffRampNode_0_1" index="1" speed="27.78" length="8.27" shape="2064.34,1546.39 2064.88,1544.07 2065.20,1542.46 2065.43,1540.84 2065.73,1538.47"/>
        <lane id=":1031928627#5-AddedOffRampNode_0_2" index="2" speed="27.78" length="8.27" shape="2067.53,1546.80 2068.07,1544.47 2068.38,1542.87 2068.61,1541.25 2068.90,1538.88"/>
    </edge>
    <edge id=":1031928629#3-AddedOnRampNode_0" function="internal">
        <lane id=":1031928629#3-AddedOnRampNode_0_0" index="0" speed="27.78" length="8.00" shape="2016.85,1996.22 2015.89,2004.17"/>
        <lane id=":1031928629#3-AddedOnRampNode_0_1" index="1" speed="27.78" length="8.00" shape="2013.67,1995.84 2012.71,2003.78"/>
    </edge>
    <edge id=":11117432843_0" function="internal">
        <lane id=":11117432843_0_0" index="0" speed="20.84" length="19.32" shape="2039.60,1658.30 2039.97,1651.97 2039.61,1646.99 2038.90,1642.86 2038.28,1639.11"/>
    </edge>
    <edge id=":11117432843_1" function="internal">
        <lane id=":11117432843_1_0" index="0" speed="27.78" length="19.19" shape="2039.60,1658.30 2042.58,1639.20"/>
        <lane id=":11117432843_1_1" index="1" speed="27.78" length="19.19" shape="2042.77,1658.69 2045.74,1639.73"/>
        <lane id=":11117432843_1_2" index="2" speed="27.78" length="19.19" shape="2045.95,1659.08 2048.90,1640.25"/>
    </edge>
    <edge id=":11117432855_0" function="internal">
        <lane id=":11117432855_0_0" index="0" speed="8.14" length="11.50" shape="2043.07,1479.88 2042.00,1477.66 2040.09,1476.03 2037.35,1475.00 2033.77,1474.57"/>
    </edge>
    <edge id=":11117432855_1" function="internal">
        <lane id=":11117432855_1_0" index="0" speed="13.89" length="15.30" shape="2043.07,1479.88 2042.00,1476.24 2040.69,1472.61 2039.21,1469.05 2037.60,1465.61"/>
    </edge>
    <edge id=":11117432855_2" function="internal">
        <lane id=":11117432855_2_0" index="0" speed="5.70" length="9.21" shape="2033.88,1471.37 2036.61,1471.10 2038.14,1470.05 2038.47,1468.22 2037.60,1465.61"/>
    </edge>
    <edge id=":11117432855_3" function="internal">
        <lane id=":11117432855_3_0" index="0" speed="3.65" length="4.67" shape="2033.88,1471.37 2035.05,1472.21 2035.42,1473.03 2035.00,1473.81 2033.77,1474.57"/>
    </edge>
    <edge id=":11117432863_0" function="internal">
        <lane id=":11117432863_0_0" index="0" speed="10.55" length="7.98" shape="2004.40,1322.28 2002.43,1320.93 2001.01,1319.93 1999.50,1319.41 1997.24,1319.46"/>
    </edge>
    <edge id=":11117432863_1" function="internal">
        <lane id=":11117432863_1_0" index="0" speed="27.78" length="8.04" shape="2005.19,1318.33 1997.24,1319.46"/>
    </edge>
    <edge id=":11117432864_0" function="internal">
        <lane id=":11117432864_0_0" index="0" speed="7.21" length="4.38" shape="2028.43,1318.21 2027.16,1318.43 2026.32,1318.76 2025.62,1319.34 2024.80,1320.33"/>
    </edge>
    <edge id=":11117432864_1" function="internal">
        <lane id=":11117432864_1_0" index="0" speed="27.78" length="4.52" shape="2027.97,1315.04 2023.49,1315.69"/>
    </edge>
    <edge id=":11117432874_0" function="internal">
        <lane id=":11117432874_0_0" index="0" speed="27.78" length="3.12" shape="2079.94,1419.27 2080.25,1416.16"/>
        <lane id=":11117432874_0_1" index="1" speed="27.78" length="3.12" shape="2083.12,1419.58 2083.43,1416.47"/>
    </edge>
    <edge id=":11117432874_2" function="internal">
        <lane id=":11117432874_2_0" index="0" speed="20.84" length="3.13" shape="2076.81,1418.96 2077.06,1415.85"/>
    </edge>
    <edge id=":11117432883_0" function="internal">
        <lane id=":11117432883_0_0" index="0" speed="6.49" length="9.03" shape="1534.84,1417.86 1535.14,1420.32 1536.16,1422.08 1537.89,1423.15 1540.34,1423.53"/>
        <lane id=":11117432883_0_1" index="1" speed="7.31" length="11.74" shape="1534.84,1417.86 1535.12,1421.72 1536.12,1424.48 1537.85,1426.15 1540.31,1426.73"/>
    </edge>
    <edge id=":11117432883_2" function="internal">
        <lane id=":11117432883_2_0" index="0" speed="3.65" length="1.44" shape="1534.84,1417.86 1534.01,1419.04"/>
    </edge>
    <edge id=":11117432883_8" function="internal">
        <lane id=":11117432883_8_0" index="0" speed="3.65" length="3.23" shape="1534.01,1419.04 1533.21,1419.43 1532.41,1419.01 1531.64,1417.80"/>
    </edge>
    <edge id=":11117432883_3" function="internal">
        <lane id=":11117432883_3_0" index="0" speed="7.36" length="11.77" shape="1525.88,1426.57 1528.34,1426.04 1530.12,1424.41 1531.22,1421.66 1531.64,1417.80"/>
    </edge>
    <edge id=":11117432883_4" function="internal">
        <lane id=":11117432883_4_0" index="0" speed="27.78" length="14.42" shape="1525.88,1426.57 1540.31,1426.73"/>
        <lane id=":11117432883_4_1" index="1" speed="27.78" length="14.42" shape="1525.85,1429.77 1540.27,1429.93"/>
        <lane id=":11117432883_4_2" index="2" speed="27.78" length="14.42" shape="1525.81,1432.97 1540.23,1433.13"/>
        <lane id=":11117432883_4_3" index="3" speed="27.78" length="14.42" shape="1525.77,1436.17 1540.20,1436.33"/>
    </edge>
    <edge id=":11397544312_0" function="internal">
        <lane id=":11397544312_0_0" index="0" speed="6.51" length="9.03" shape="1274.88,1430.94 1272.41,1431.00 1270.55,1431.84 1269.30,1433.45 1268.67,1435.85"/>
    </edge>
    <edge id=":11397544312_1" function="internal">
        <lane id=":11397544312_1_0" index="0" speed="27.78" length="14.39" shape="1274.88,1430.94 1260.62,1429.03"/>
    </edge>
    <edge id=":11397544312_2" function="internal">
        <lane id=":11397544312_2_0" index="0" speed="6.71" length="9.04" shape="1265.49,1435.47 1265.42,1433.08 1264.58,1431.21 1262.98,1429.86 1260.62,1429.03"/>
    </edge>
    <edge id=":11397544312_3" function="internal">
        <lane id=":11397544312_3_0" index="0" speed="3.65" length="1.44" shape="1265.49,1435.47 1266.42,1434.38"/>
    </edge>
    <edge id=":11397544312_4" function="internal">
        <lane id=":11397544312_4_0" index="0" speed="3.65" length="3.23" shape="1266.42,1434.38 1267.26,1434.07 1268.01,1434.56 1268.67,1435.85"/>
    </edge>
    <edge id=":11397544329_0" function="internal">
        <lane id=":11397544329_0_0" index="0" speed="13.89" length="12.57" shape="1457.62,1482.64 1445.05,1482.15"/>
    </edge>
    <edge id=":11397544329_1" function="internal">
        <lane id=":11397544329_1_0" index="0" speed="7.78" length="3.13" shape="1457.62,1482.64 1454.68,1481.98 1454.58,1481.90"/>
    </edge>
    <edge id=":11397544329_2" function="internal">
        <lane id=":11397544329_2_0" index="0" speed="3.65" length="1.44" shape="1457.62,1482.64 1456.45,1481.80"/>
    </edge>
    <edge id=":11397544329_9" function="internal">
        <lane id=":11397544329_9_0" index="0" speed="7.78" length="9.68" shape="1454.58,1481.90 1452.56,1480.23 1451.26,1477.40 1450.78,1473.49"/>
    </edge>
    <edge id=":11397544329_10" function="internal">
        <lane id=":11397544329_10_0" index="0" speed="3.65" length="3.23" shape="1456.45,1481.80 1456.08,1480.98 1456.50,1480.20 1457.73,1479.44"/>
    </edge>
    <edge id=":11397544329_3" function="internal">
        <lane id=":11397544329_3_0" index="0" speed="6.24" length="7.88" shape="1453.98,1473.44 1454.25,1476.01 1454.96,1477.87 1456.13,1479.02 1457.73,1479.44"/>
    </edge>
    <edge id=":11397544329_4" function="internal">
        <lane id=":11397544329_4_0" index="0" speed="7.90" length="14.41" shape="1453.98,1473.44 1453.48,1477.39 1451.82,1480.16 1449.01,1481.74 1445.05,1482.15"/>
    </edge>
    <edge id=":11397544329_5" function="internal">
        <lane id=":11397544329_5_0" index="0" speed="3.65" length="4.67" shape="1453.98,1473.44 1453.20,1474.65 1452.40,1475.06 1451.60,1474.68 1450.78,1473.49"/>
    </edge>
    <edge id=":11397544329_6" function="internal">
        <lane id=":11397544329_6_0" index="0" speed="6.39" length="9.04" shape="1445.18,1478.95 1447.67,1478.70 1449.43,1477.70 1450.46,1475.97 1450.78,1473.49"/>
    </edge>
    <edge id=":11397544329_7" function="internal">
        <lane id=":11397544329_7_0" index="0" speed="13.89" length="12.56" shape="1445.18,1478.95 1457.73,1479.44"/>
    </edge>
    <edge id=":11397544329_8" function="internal">
        <lane id=":11397544329_8_0" index="0" speed="3.65" length="1.44" shape="1445.18,1478.95 1446.35,1479.80"/>
    </edge>
    <edge id=":11397544329_11" function="internal">
        <lane id=":11397544329_11_0" index="0" speed="3.65" length="3.23" shape="1446.35,1479.80 1446.72,1480.62 1446.29,1481.40 1445.05,1482.15"/>
    </edge>
    <edge id=":11397544330_0" function="internal">
        <lane id=":11397544330_0_0" index="0" speed="3.65" length="4.67" shape="1450.49,1456.15 1451.27,1454.93 1452.06,1454.52 1452.87,1454.91 1453.69,1456.09"/>
    </edge>
    <edge id=":11397544341_0" function="internal">
        <lane id=":11397544341_0_0" index="0" speed="13.89" length="15.10" shape="1288.21,1771.19 1275.23,1763.48"/>
    </edge>
    <edge id=":11397544341_1" function="internal">
        <lane id=":11397544341_1_0" index="0" speed="10.14" length="3.58" shape="1288.21,1771.19 1285.62,1768.99 1285.53,1768.83"/>
    </edge>
    <edge id=":11397544341_2" function="internal">
        <lane id=":11397544341_2_0" index="0" speed="3.65" length="1.44" shape="1288.21,1771.19 1287.59,1769.89"/>
    </edge>
    <edge id=":11397544341_9" function="internal">
        <lane id=":11397544341_9_0" index="0" speed="10.14" length="11.81" shape="1285.53,1768.83 1283.91,1765.98 1283.05,1762.17 1283.06,1757.54"/>
    </edge>
    <edge id=":11397544341_10" function="internal">
        <lane id=":11397544341_10_0" index="0" speed="3.65" length="3.23" shape="1287.59,1769.89 1287.65,1768.99 1288.40,1768.51 1289.84,1768.44"/>
    </edge>
    <edge id=":11397544341_3" function="internal">
        <lane id=":11397544341_3_0" index="0" speed="8.94" length="11.80" shape="1286.25,1757.82 1286.21,1761.51 1286.79,1764.50 1288.01,1766.81 1289.84,1768.44"/>
    </edge>
    <edge id=":11397544341_4" function="internal">
        <lane id=":11397544341_4_0" index="0" speed="7.44" length="16.30" shape="1286.25,1757.82 1285.18,1762.52 1282.98,1765.03 1279.67,1765.35 1275.23,1763.48"/>
    </edge>
    <edge id=":11397544341_5" function="internal">
        <lane id=":11397544341_5_0" index="0" speed="3.65" length="4.67" shape="1286.25,1757.82 1285.34,1758.95 1284.51,1759.28 1283.75,1758.81 1283.06,1757.54"/>
    </edge>
    <edge id=":11397544341_6" function="internal">
        <lane id=":11397544341_6_0" index="0" speed="5.75" length="9.17" shape="1276.86,1760.73 1279.36,1761.78 1281.22,1761.60 1282.46,1760.19 1283.06,1757.54"/>
    </edge>
    <edge id=":11397544341_7" function="internal">
        <lane id=":11397544341_7_0" index="0" speed="13.89" length="15.10" shape="1276.86,1760.73 1289.84,1768.44"/>
    </edge>
    <edge id=":11397544341_8" function="internal">
        <lane id=":11397544341_8_0" index="0" speed="3.65" length="1.44" shape="1276.86,1760.73 1277.48,1762.03"/>
    </edge>
    <edge id=":11397544341_11" function="internal">
        <lane id=":11397544341_11_0" index="0" speed="3.65" length="3.23" shape="1277.48,1762.03 1277.42,1762.92 1276.67,1763.40 1275.23,1763.48"/>
    </edge>
    <edge id=":11397564372_0" function="internal">
        <lane id=":11397564372_0_0" index="0" speed="2.78" length="8.75" shape="1306.45,2085.77 1305.37,2083.64 1303.86,2082.34 1301.93,2081.87 1299.57,2082.21"/>
    </edge>
    <edge id=":11397564372_1" function="internal">
        <lane id=":11397564372_1_0" index="0" speed="2.78" length="13.72" shape="1306.45,2085.77 1305.37,2082.39 1304.52,2079.19 1303.85,2075.94 1303.33,2072.43"/>
    </edge>
    <edge id=":11397564372_2" function="internal">
        <lane id=":11397564372_2_0" index="0" speed="2.78" length="4.67" shape="1306.45,2085.77 1306.82,2084.37 1307.45,2083.73 1308.33,2083.85 1309.48,2084.73"/>
    </edge>
    <edge id=":11397564372_3" function="internal">
        <lane id=":11397564372_3_0" index="0" speed="2.78" length="13.06" shape="1306.51,2072.04 1307.01,2075.45 1307.62,2078.47 1308.42,2081.45 1309.48,2084.73"/>
    </edge>
    <edge id=":11397564372_4" function="internal">
        <lane id=":11397564372_4_0" index="0" speed="2.78" length="13.59" shape="1306.51,2072.04 1306.44,2075.61 1305.26,2078.50 1302.97,2080.70 1299.57,2082.21"/>
    </edge>
    <edge id=":11397564372_5" function="internal">
        <lane id=":11397564372_5_0" index="0" speed="2.78" length="4.67" shape="1306.51,2072.04 1305.86,2073.33 1305.12,2073.82 1304.28,2073.52 1303.33,2072.43"/>
    </edge>
    <edge id=":11397564372_6" function="internal">
        <lane id=":11397564372_6_0" index="0" speed="2.78" length="9.02" shape="1298.67,2079.14 1300.95,2078.14 1302.49,2076.68 1303.28,2074.78 1303.33,2072.43"/>
    </edge>
    <edge id=":11397564372_7" function="internal">
        <lane id=":11397564372_7_0" index="0" speed="2.78" length="13.75" shape="1298.67,2079.14 1302.37,2078.60 1305.41,2079.35 1307.78,2081.39 1309.48,2084.73"/>
    </edge>
    <edge id=":11397564372_8" function="internal">
        <lane id=":11397564372_8_0" index="0" speed="2.78" length="4.67" shape="1298.67,2079.14 1300.04,2079.57 1300.65,2080.23 1300.50,2081.11 1299.57,2082.21"/>
    </edge>
    <edge id=":11397564404_0" function="internal">
        <lane id=":11397564404_0_0" index="0" speed="6.48" length="9.03" shape="1178.57,2088.56 1176.33,2089.63 1174.99,2091.16 1174.53,2093.15 1174.97,2095.59"/>
    </edge>
    <edge id=":11397564404_1" function="internal">
        <lane id=":11397564404_1_0" index="0" speed="2.78" length="4.67" shape="1178.57,2088.56 1177.18,2088.16 1176.56,2087.51 1176.70,2086.63 1177.61,2085.51"/>
    </edge>
    <edge id=":11397564404_2" function="internal">
        <lane id=":11397564404_2_0" index="0" speed="6.56" length="9.10" shape="1170.46,2081.91 1171.56,2084.12 1173.12,2085.46 1175.14,2085.92 1177.61,2085.51"/>
    </edge>
    <edge id=":11397564404_3" function="internal">
        <lane id=":11397564404_3_0" index="0" speed="11.11" length="14.40" shape="1170.46,2081.91 1174.97,2095.59"/>
        <lane id=":11397564404_3_1" index="1" speed="11.11" length="14.40" shape="1167.42,2082.91 1171.93,2096.59"/>
    </edge>
    <edge id=":11880731223_0" function="internal">
        <lane id=":11880731223_0_0" index="0" speed="6.98" length="9.63" shape="1538.41,1840.96 1538.65,1843.70 1539.60,1845.77 1541.24,1847.17 1543.58,1847.90"/>
    </edge>
    <edge id=":11880731223_1" function="internal">
        <lane id=":11880731223_1_0" index="0" speed="3.65" length="4.67" shape="1538.41,1840.96 1537.57,1842.14 1536.75,1842.51 1535.97,1842.08 1535.21,1840.86"/>
    </edge>
    <edge id=":11880731223_2" function="internal">
        <lane id=":11880731223_2_0" index="0" speed="6.28" length="9.04" shape="1529.29,1845.80 1531.81,1845.81 1533.63,1844.99 1534.77,1843.34 1535.21,1840.86"/>
    </edge>
    <edge id=":11880731223_3" function="internal">
        <lane id=":11880731223_3_0" index="0" speed="27.78" length="14.44" shape="1529.29,1845.80 1543.58,1847.90"/>
    </edge>
    <edge id=":11880731225_0" function="internal">
        <lane id=":11880731225_0_0" index="0" speed="3.65" length="4.67" shape="1591.10,1707.89 1592.51,1707.56 1593.37,1707.80 1593.68,1708.64 1593.46,1710.07"/>
    </edge>
    <edge id=":11880731264_0" function="internal">
        <lane id=":11880731264_0_0" index="0" speed="7.86" length="10.69" shape="1657.33,1203.32 1655.74,1201.48 1653.62,1200.41 1650.97,1200.13 1647.79,1200.63"/>
    </edge>
    <edge id=":11880731264_1" function="internal">
        <lane id=":11880731264_1_0" index="0" speed="27.78" length="14.68" shape="1657.33,1203.32 1649.78,1190.73"/>
    </edge>
    <edge id=":11880731264_2" function="internal">
        <lane id=":11880731264_2_0" index="0" speed="5.97" length="9.09" shape="1646.99,1197.53 1649.40,1196.53 1650.66,1195.06 1650.79,1193.13 1649.78,1190.73"/>
    </edge>
    <edge id=":11880731264_3" function="internal">
        <lane id=":11880731264_3_0" index="0" speed="3.65" length="4.67" shape="1646.99,1197.53 1648.35,1198.00 1648.94,1198.68 1648.75,1199.55 1647.79,1200.63"/>
    </edge>
    <edge id=":11880731266_0" function="internal">
        <lane id=":11880731266_0_0" index="0" speed="3.65" length="4.67" shape="1635.86,1359.25 1635.11,1360.49 1634.33,1360.92 1633.51,1360.55 1632.66,1359.39"/>
    </edge>
    <edge id=":12420174246_0" function="internal">
        <lane id=":12420174246_0_0" index="0" speed="6.44" length="9.03" shape="1255.92,1861.46 1253.74,1860.27 1251.72,1860.08 1249.85,1860.89 1248.16,1862.71"/>
    </edge>
    <edge id=":12420174246_1" function="internal">
        <lane id=":12420174246_1_0" index="0" speed="2.78" length="4.67" shape="1255.92,1861.46 1255.44,1860.10 1255.60,1859.22 1256.40,1858.82 1257.84,1858.89"/>
    </edge>
    <edge id=":12420174246_2" function="internal">
        <lane id=":12420174246_2_0" index="0" speed="6.61" length="9.18" shape="1256.46,1850.92 1255.34,1853.12 1255.19,1855.18 1256.03,1857.11 1257.84,1858.89"/>
    </edge>
    <edge id=":12420174246_3" function="internal">
        <lane id=":12420174246_3_0" index="0" speed="27.78" length="14.41" shape="1256.46,1850.92 1248.16,1862.71"/>
    </edge>
    <edge id=":2774453985_0" function="internal">
        <lane id=":2774453985_0_0" index="0" speed="13.89" length="14.37" shape="1259.29,1725.78 1259.15,1740.15"/>
    </edge>
    <edge id=":2774453985_1" function="internal">
        <lane id=":2774453985_1_0" index="0" speed="7.88" length="4.01" shape="1259.29,1725.78 1258.66,1729.74"/>
    </edge>
    <edge id=":2774453985_2" function="internal">
        <lane id=":2774453985_2_0" index="0" speed="3.65" length="1.44" shape="1259.29,1725.78 1258.47,1726.97"/>
    </edge>
    <edge id=":2774453985_9" function="internal">
        <lane id=":2774453985_9_0" index="0" speed="7.88" length="10.47" shape="1258.66,1729.74 1256.91,1732.45 1254.03,1733.92 1250.03,1734.14"/>
    </edge>
    <edge id=":2774453985_10" function="internal">
        <lane id=":2774453985_10_0" index="0" speed="3.65" length="3.23" shape="1258.47,1726.97 1257.67,1727.36 1256.87,1726.95 1256.09,1725.74"/>
    </edge>
    <edge id=":2774453985_3" function="internal">
        <lane id=":2774453985_3_0" index="0" speed="6.35" length="9.04" shape="1250.31,1730.96 1252.81,1730.82 1254.60,1729.90 1255.70,1728.21 1256.09,1725.74"/>
    </edge>
    <edge id=":2774453985_4" function="internal">
        <lane id=":2774453985_4_0" index="0" speed="8.28" length="14.29" shape="1250.31,1730.96 1254.19,1731.82 1256.96,1733.64 1258.61,1736.42 1259.15,1740.15"/>
    </edge>
    <edge id=":2774453985_5" function="internal">
        <lane id=":2774453985_5_0" index="0" speed="3.65" length="4.67" shape="1250.31,1730.96 1251.43,1731.86 1251.76,1732.69 1251.29,1733.45 1250.03,1734.14"/>
    </edge>
    <edge id=":2774453985_6" function="internal">
        <lane id=":2774453985_6_0" index="0" speed="6.84" length="9.44" shape="1255.95,1740.14 1255.59,1737.71 1254.48,1735.90 1252.63,1734.71 1250.03,1734.14"/>
    </edge>
    <edge id=":2774453985_7" function="internal">
        <lane id=":2774453985_7_0" index="0" speed="13.89" length="14.40" shape="1255.95,1740.14 1256.09,1725.74"/>
    </edge>
    <edge id=":2774453985_8" function="internal">
        <lane id=":2774453985_8_0" index="0" speed="3.65" length="1.44" shape="1255.95,1740.14 1256.76,1738.94"/>
    </edge>
    <edge id=":2774453985_11" function="internal">
        <lane id=":2774453985_11_0" index="0" speed="3.65" length="3.23" shape="1256.76,1738.94 1257.56,1738.54 1258.36,1738.95 1259.15,1740.15"/>
    </edge>
    <edge id=":2774453986_0" function="internal">
        <lane id=":2774453986_0_0" index="0" speed="13.89" length="14.52" shape="1268.01,1441.43 1266.30,1455.84"/>
    </edge>
    <edge id=":2774453986_1" function="internal">
        <lane id=":2774453986_1_0" index="0" speed="7.72" length="4.20" shape="1268.01,1441.43 1266.93,1445.48"/>
    </edge>
    <edge id=":2774453986_2" function="internal">
        <lane id=":2774453986_2_0" index="0" speed="3.65" length="1.44" shape="1268.01,1441.43 1267.08,1442.52"/>
    </edge>
    <edge id=":2774453986_9" function="internal">
        <lane id=":2774453986_9_0" index="0" speed="7.72" length="10.72" shape="1266.93,1445.48 1264.83,1447.98 1261.70,1448.90 1257.55,1448.26"/>
    </edge>
    <edge id=":2774453986_10" function="internal">
        <lane id=":2774453986_10_0" index="0" speed="3.65" length="3.23" shape="1267.08,1442.52 1266.24,1442.83 1265.49,1442.34 1264.83,1441.05"/>
    </edge>
    <edge id=":2774453986_3" function="internal">
        <lane id=":2774453986_3_0" index="0" speed="6.15" length="9.06" shape="1258.49,1445.20 1261.00,1445.59 1262.90,1445.03 1264.18,1443.52 1264.83,1441.05"/>
    </edge>
    <edge id=":2774453986_4" function="internal">
        <lane id=":2774453986_4_0" index="0" speed="8.66" length="14.53" shape="1258.49,1445.20 1262.26,1446.87 1264.83,1449.20 1266.17,1452.19 1266.30,1455.84"/>
    </edge>
    <edge id=":2774453986_5" function="internal">
        <lane id=":2774453986_5_0" index="0" speed="3.65" length="4.67" shape="1258.49,1445.20 1259.40,1446.32 1259.55,1447.20 1258.93,1447.85 1257.55,1448.26"/>
    </edge>
    <edge id=":2774453986_6" function="internal">
        <lane id=":2774453986_6_0" index="0" speed="7.28" length="10.01" shape="1263.12,1455.46 1263.01,1453.02 1262.05,1451.01 1260.23,1449.42 1257.55,1448.26"/>
    </edge>
    <edge id=":2774453986_7" function="internal">
        <lane id=":2774453986_7_0" index="0" speed="13.89" length="14.51" shape="1263.12,1455.46 1264.83,1441.05"/>
    </edge>
    <edge id=":2774453986_8" function="internal">
        <lane id=":2774453986_8_0" index="0" speed="3.65" length="1.44" shape="1263.12,1455.46 1264.06,1454.36"/>
    </edge>
    <edge id=":2774453986_11" function="internal">
        <lane id=":2774453986_11_0" index="0" speed="3.65" length="3.23" shape="1264.06,1454.36 1264.90,1454.06 1265.65,1454.56 1266.30,1455.84"/>
    </edge>
    <edge id=":2774453988_0" function="internal">
        <lane id=":2774453988_0_0" index="0" speed="6.65" length="9.38" shape="1269.70,1478.77 1267.07,1479.11 1265.17,1480.14 1264.01,1481.88 1263.59,1484.32"/>
    </edge>
    <edge id=":2774453988_1" function="internal">
        <lane id=":2774453988_1_0" index="0" speed="7.81" length="14.65" shape="1269.70,1478.77 1265.67,1478.17 1262.94,1476.40 1261.54,1473.48 1261.44,1469.40"/>
    </edge>
    <edge id=":2774453988_2" function="internal">
        <lane id=":2774453988_2_0" index="0" speed="3.65" length="4.67" shape="1269.70,1478.77 1268.51,1477.96 1268.11,1477.16 1268.51,1476.36 1269.72,1475.57"/>
    </edge>
    <edge id=":2774453988_3" function="internal">
        <lane id=":2774453988_3_0" index="0" speed="6.27" length="9.04" shape="1264.62,1469.79 1264.68,1472.31 1265.55,1474.11 1267.23,1475.20 1269.72,1475.57"/>
    </edge>
    <edge id=":2774453988_4" function="internal">
        <lane id=":2774453988_4_0" index="0" speed="13.89" length="14.57" shape="1264.62,1469.79 1264.22,1473.45 1263.91,1477.04 1263.70,1480.64 1263.59,1484.32"/>
    </edge>
    <edge id=":2774453988_5" function="internal">
        <lane id=":2774453988_5_0" index="0" speed="3.65" length="1.44" shape="1264.62,1469.79 1263.68,1470.88"/>
    </edge>
    <edge id=":2774453988_9" function="internal">
        <lane id=":2774453988_9_0" index="0" speed="3.65" length="3.23" shape="1263.68,1470.88 1262.84,1471.18 1262.09,1470.69 1261.44,1469.40"/>
    </edge>
    <edge id=":2774453988_6" function="internal">
        <lane id=":2774453988_6_0" index="0" speed="13.89" length="14.90" shape="1260.39,1484.26 1260.51,1480.53 1260.72,1476.82 1261.04,1473.12 1261.44,1469.40"/>
    </edge>
    <edge id=":2774453988_7" function="internal">
        <lane id=":2774453988_7_0" index="0" speed="8.12" length="4.10" shape="1260.39,1484.26 1261.03,1480.44 1261.15,1480.25"/>
    </edge>
    <edge id=":2774453988_8" function="internal">
        <lane id=":2774453988_8_0" index="0" speed="3.65" length="1.44" shape="1260.39,1484.26 1261.21,1483.07"/>
    </edge>
    <edge id=":2774453988_10" function="internal">
        <lane id=":2774453988_10_0" index="0" speed="8.12" length="10.40" shape="1261.15,1480.25 1262.80,1477.72 1265.70,1476.10 1269.72,1475.57"/>
    </edge>
    <edge id=":2774453988_11" function="internal">
        <lane id=":2774453988_11_0" index="0" speed="3.65" length="3.23" shape="1261.21,1483.07 1262.02,1482.69 1262.81,1483.10 1263.59,1484.32"/>
    </edge>
    <edge id=":2774453989_0" function="internal">