<?xml version="1.0" encoding="UTF-8"?>

<!-- generated on 2025-04-09 14:19:15.269725 by osmWebWizard.py v1_22_0+0002-63e50f52594
<configuration>
    <net-file value="E:\ProgramFiles\Sumo\tools\2025-04-09-14-19-12\osm.net.xml.gz"/>
    <output-trip-file value="E:\ProgramFiles\Sumo\tools\2025-04-09-14-19-12\osm.passenger.trips.xml"/>
    <route-file value="E:\ProgramFiles\Sumo\tools\2025-04-09-14-19-12\osm.passenger.rou.xml"/>
    <prefix value="veh"/>
    <trip-attributes value="departLane=&quot;best&quot;"/>
    <fringe-start-attributes value="departSpeed=&quot;max&quot;"/>
    <vehicle-class value="passenger"/>
    <lanes value="True"/>
    <fringe-factor value="5"/>
    <allow-fringe.min-length value="1000.0"/>
    <via-edge-types value="highway.motorway,highway.motorway_link,highway.trunk_link,highway.primary_link,highway.secondary_link,highway.tertiary_link"/>
    <min-distance value="300.0"/>
    <min-distance.fringe value="10.0"/>
    <remove-loops value="True"/>
    <validate value="True"/>
    <insertion-density value="15.0"/>
</configuration>
-->

<!-- generated on 2025-04-09 14:19:15 by Eclipse SUMO duarouter Version 1.22.0
<duarouterConfiguration xmlns:xsi="http://www.w3.org/2001/XMLSchema-instance" xsi:noNamespaceSchemaLocation="http://sumo.dlr.de/xsd/duarouterConfiguration.xsd">

    <input>
        <net-file value="E:\ProgramFiles\Sumo\tools\2025-04-09-14-19-12\osm.net.xml.gz"/>
        <route-files value="E:\ProgramFiles\Sumo\tools\2025-04-09-14-19-12\osm.passenger.trips.xml"/>
    </input>

    <output>
        <output-file value="E:\ProgramFiles\Sumo\tools\2025-04-09-14-19-12\osm.passenger.trips.xml.tmp"/>
        <alternatives-output value="NUL"/>
        <write-trips value="true"/>
    </output>

    <processing>
        <remove-loops value="true"/>
    </processing>

    <time>
        <begin value="0.0"/>
        <end value="3600.0"/>
    </time>

    <report>
        <no-warnings value="true"/>
        <ignore-errors value="true"/>
        <no-step-log value="true"/>
    </report>

</duarouterConfiguration>
-->

<routes xmlns:xsi="http://www.w3.org/2001/XMLSchema-instance" xsi:noNamespaceSchemaLocation="http://sumo.dlr.de/xsd/routes_file.xsd">
    <vType id="veh_passenger" vClass="passenger"/>
    <trip id="veh1" type="veh_passenger" depart="3.44" departLane="best" from="785842362#2" to="-312550764#3"/>
    <trip id="veh2" type="veh_passenger" depart="6.88" departLane="best" from="1031928627#3-AddedOnRampEdge" to="-1229018635#3"/>
    <trip id="veh3" type="veh_passenger" depart="10.32" departLane="best" departSpeed="max" from="-547357074#1" to="1212685515#3"/>
    <trip id="veh5" type="veh_passenger" depart="17.19" departLane="best" from="-57009975#1" to="308054423#10"/>
    <trip id="veh6" type="veh_passenger" depart="20.63" departLane="best" departSpeed="max" from="57009975#0" to="-1029579555"/>
    <trip id="veh7" type="veh_passenger" depart="24.07" departLane="best" departSpeed="max" from="57009975#0" to="337138428#1"/>
    <trip id="veh8" type="veh_passenger" depart="27.51" departLane="best" from="1224960562" to="-547357074#0"/>
    <trip id="veh9" type="veh_passenger" depart="30.95" departLane="best" from="937527325" to="1029410063#2"/>
    <trip id="veh10" type="veh_passenger" depart="34.38" departLane="best" from="-272514055" to="-314215539"/>
    <trip id="veh12" type="veh_passenger" depart="41.26" departLane="best" departSpeed="max" from="57009975#0" to="359327007"/>
    <trip id="veh13" type="veh_passenger" depart="44.70" departLane="best" from="-1229018624" to="937541343#3"/>
    <trip id="veh14" type="veh_passenger" depart="48.14" departLane="best" from="1030743538#1" to="1279838358"/>
    <trip id="veh15" type="veh_passenger" depart="51.58" departLane="best" departSpeed="max" from="644418442#0" to="-1229018634"/>
    <trip id="veh16" type="veh_passenger" depart="55.01" departLane="best" departSpeed="max" from="785842362#0" to="308054420#4"/>
    <trip id="veh18" type="veh_passenger" depart="61.89" departLane="best" departSpeed="max" from="-937527313#2" to="1026652639#3"/>
    <trip id="veh19" type="veh_passenger" depart="65.33" departLane="best" departSpeed="max" from="-1279838364" to="937527316#6"/>
    <trip id="veh20" type="veh_passenger" depart="68.77" departLane="best" from="310762330#4" to="1023641969#10"/>
    <trip id="veh21" type="veh_passenger" depart="72.21" departLane="best" from="310762325#1" to="1030743540#1"/>
    <trip id="veh22" type="veh_passenger" depart="75.65" departLane="best" departSpeed="max" from="1029579555" to="-937527315#3"/>
    <trip id="veh24" type="veh_passenger" depart="82.52" departLane="best" departSpeed="max" from="-337138425#3" to="359327007"/>
    <trip id="veh25" type="veh_passenger" depart="85.96" departLane="best" from="-337138425#0" to="1030743540#1-AddedOnRampEdge"/>
    <trip id="veh26" type="veh_passenger" depart="89.40" departLane="best" from="54818904#5" to="314215531#2"/>
    <trip id="veh27" type="veh_passenger" depart="92.84" departLane="best" departSpeed="max" from="1342927908#0" to="337138425#3"/>
    <trip id="veh28" type="veh_passenger" depart="96.28" departLane="best" departSpeed="max" from="785842362#0" to="547357073#1"/>
    <trip id="veh29" type="veh_passenger" depart="99.71" departLane="best" departSpeed="max" from="-937527313#2" to="-1229018636"/>
    <trip id="veh30" type="veh_passenger" depart="103.15" departLane="best" from="-983563029#2" to="-983563029#2"/>
    <trip id="veh31" type="veh_passenger" depart="106.59" departLane="best" departSpeed="max" from="-339271943" to="937527323"/>
    <trip id="veh32" type="veh_passenger" depart="110.03" departLane="best" departSpeed="max" from="785842362#0" to="1026755238#2"/>
    <trip id="veh33" type="veh_passenger" depart="113.47" departLane="best" from="-312550764#0" to="1031928627#3"/>
    <trip id="veh34" type="veh_passenger" depart="116.91" departLane="best" from="937527315#2" to="1023794818#0"/>
    <trip id="veh35" type="veh_passenger" depart="120.35" departLane="best" departSpeed="max" from="308054423#0" to="-937527315#12"/>
    <trip id="veh36" type="veh_passenger" depart="123.78" departLane="best" from="1031928627#0" to="-937527315#9"/>
    <trip id="veh39" type="veh_passenger" depart="134.10" departLane="best" from="937541343#8" to="1229018645#5"/>
    <trip id="veh42" type="veh_passenger" depart="144.41" departLane="best" from="337138423#0" to="1229018645#5"/>
    <trip id="veh43" type="veh_passenger" depart="147.85" departLane="best" from="-937527316#4" to="314215531#2"/>
    <trip id="veh44" type="veh_passenger" depart="151.29" departLane="best" from="-312550764#3" to="54818904#1"/>
    <trip id="veh45" type="veh_passenger" depart="154.73" departLane="best" departSpeed="max" from="1031928629#0" to="937527328#3"/>
    <trip id="veh46" type="veh_passenger" depart="158.17" departLane="best" departSpeed="max" from="785842362#0" to="-937527330#3"/>
    <trip id="veh49" type="veh_passenger" depart="168.48" departLane="best" from="-937527330#1" to="314215531#2"/>
    <trip id="veh50" type="veh_passenger" depart="171.92" departLane="best" from="308054423#8" to="-547357074#0"/>
    <trip id="veh51" type="veh_passenger" depart="175.36" departLane="best" from="359327993-AddedOffRampEdge" to="-1229020595#0"/>
    <trip id="veh52" type="veh_passenger" depart="178.80" departLane="best" departSpeed="max" from="547357074#0" to="1229018645#5"/>
    <trip id="veh53" type="veh_passenger" depart="182.24" departLane="best" from="-1029579556#0" to="1029410062#1"/>
    <trip id="veh55" type="veh_passenger" depart="189.11" departLane="best" departSpeed="max" from="785842362#0" to="751872167#1"/>
    <trip id="veh56" type="veh_passenger" depart="192.55" departLane="best" departSpeed="max" from="-983563022#1" to="-312550764#6"/>
    <trip id="veh57" type="veh_passenger" depart="195.99" departLane="best" departSpeed="max" from="785842362#0" to="937527326"/>
    <trip id="veh60" type="veh_passenger" depart="206.31" departLane="best" from="368759103#0" to="-337138429#0"/>
    <trip id="veh61" type="veh_passenger" depart="209.74" departLane="best" from="1031928629#3" to="1279838354"/>
    <trip id="veh62" type="veh_passenger" depart="213.18" departLane="best" from="-937527316#3" to="902042656#2"/>
    <trip id="veh63" type="veh_passenger" depart="216.62" departLane="best" from="1031928627#3-AddedOnRampEdge" to="-937527315#4"/>
    <trip id="veh64" type="veh_passenger" depart="220.06" departLane="best" from="1229018634" to="359327007"/>
    <trip id="veh65" type="veh_passenger" depart="223.50" departLane="best" from="-337354539#4" to="1026755238#1"/>
    <trip id="veh66" type="veh_passenger" depart="226.94" departLane="best" from="937541343#8" to="321958786#2"/>
    <trip id="veh67" type="veh_passenger" depart="230.38" departLane="best" from="1031928627#5-AddedOffRampEdge" to="1229018629"/>
    <trip id="veh68" type="veh_passenger" depart="233.81" departLane="best" from="-314215531#1" to="937527316#2"/>
    <trip id="veh69" type="veh_passenger" depart="237.25" departLane="best" from="1026766572" to="1023641969#2"/>
    <trip id="veh70" type="veh_passenger" depart="240.69" departLane="best" departSpeed="max" from="785842362#0" to="-310762330#0"/>
    <trip id="veh71" type="veh_passenger" depart="244.13" departLane="best" from="-937527315#1" to="337138424#1"/>
    <trip id="veh72" type="veh_passenger" depart="247.57" departLane="best" departSpeed="max" from="-547357074#1" to="-337138429#0"/>
    <trip id="veh73" type="veh_passenger" depart="251.01" departLane="best" from="1031928629#2" to="547357074#1"/>
    <trip id="veh74" type="veh_passenger" depart="254.44" departLane="best" departSpeed="max" from="57009975#0" to="-644418442#1"/>
    <trip id="veh75" type="veh_passenger" depart="257.88" departLane="best" from="-272514059" to="1031928627#7"/>
    <trip id="veh78" type="veh_passenger" depart="268.20" departLane="best" from="937541343#3" to="-314215539"/>
    <trip id="veh80" type="veh_passenger" depart="275.07" departLane="best" departSpeed="max" from="785842362#0" to="-937527325"/>
    <trip id="veh81" type="veh_passenger" depart="278.51" departLane="best" from="-337138430#1" to="1031928629#3"/>
    <trip id="veh82" type="veh_passenger" depart="281.95" departLane="best" from="1031928627#3-AddedOnRampEdge" to="1023641969#10"/>
    <trip id="veh84" type="veh_passenger" depart="288.83" departLane="best" from="983563029#0" to="751872167#1"/>
    <trip id="veh85" type="veh_passenger" depart="292.27" departLane="best" departSpeed="max" from="785842362#0" to="-57009975#0"/>
    <trip id="veh86" type="veh_passenger" depart="295.71" departLane="best" from="1031928637#0" to="-937527315#5"/>
    <trip id="veh87" type="veh_passenger" depart="299.14" departLane="best" from="1031928627#0" to="-272514055"/>
    <trip id="veh88" type="veh_passenger" depart="302.58" departLane="best" from="1030743538#1" to="937541343#8"/>
    <trip id="veh89" type="veh_passenger" depart="306.02" departLane="best" from="-937527316#3" to="547357074#1"/>
    <trip id="veh90" type="veh_passenger" depart="309.46" departLane="best" departSpeed="max" from="1031928629#0" to="1031928627#5-AddedOffRampEdge"/>
    <trip id="veh92" type="veh_passenger" depart="316.34" departLane="best" departSpeed="max" from="1342927908#0" to="339271943"/>
    <trip id="veh93" type="veh_passenger" depart="319.77" departLane="best" departSpeed="max" from="-337138424#1" to="1026652639#4"/>
    <trip id="veh94" type="veh_passenger" depart="323.21" departLane="best" from="-937527330#1" to="308054420#4"/>
    <trip id="veh95" type="veh_passenger" depart="326.65" departLane="best" from="1229018635#3" to="359327007-AddedOnRampEdge"/>
    <trip id="veh96" type="veh_passenger" depart="330.09" departLane="best" departSpeed="max" from="-1229018645#5" to="1023641969#8"/>
    <trip id="veh97" type="veh_passenger" depart="333.53" departLane="best" departSpeed="max" from="1035131044#0" to="782887374#0"/>
    <trip id="veh98" type="veh_passenger" depart="336.97" departLane="best" departSpeed="max" from="-337138424#1" to="937527330#2"/>
    <trip id="veh99" type="veh_passenger" depart="340.40" departLane="best" departSpeed="max" from="-1279838364" to="-644418442#1"/>
    <trip id="veh100" type="veh_passenger" depart="343.84" departLane="best" departSpeed="max" from="308054423#0" to="337138424#1"/>
    <trip id="veh101" type="veh_passenger" depart="347.28" departLane="best" from="-937527313#1" to="-337138428#0"/>
    <trip id="veh102" type="veh_passenger" depart="350.72" departLane="best" departSpeed="max" from="308054423#0" to="312550764#0"/>
    <trip id="veh103" type="veh_passenger" depart="354.16" departLane="best" from="1031928627#3-AddedOnRampEdge" to="1023641969#8"/>
    <trip id="veh104" type="veh_passenger" depart="357.60" departLane="best" from="1212685515#3" to="937527318#0"/>
    <trip id="veh105" type="veh_passenger" depart="361.04" departLane="best" departSpeed="max" from="-339271943" to="337354539#4"/>
    <trip id="veh106" type="veh_passenger" depart="364.47" departLane="best" from="-937527315#10" to="1031928627#3"/>
    <trip id="veh107" type="veh_passenger" depart="367.91" departLane="best" from="321958786#0" to="1026755234#1"/>
    <trip id="veh109" type="veh_passenger" depart="374.79" departLane="best" departSpeed="max" from="-1279838354" to="1031928637#0"/>
    <trip id="veh111" type="veh_passenger" depart="381.67" departLane="best" departSpeed="max" from="-1279838354" to="-937527315#5"/>
    <trip id="veh112" type="veh_passenger" depart="385.10" departLane="best" from="785842362#1" to="937527313#0"/>
    <trip id="veh113" type="veh_passenger" depart="388.54" departLane="best" departSpeed="max" from="1029579555" to="-547357074#0"/>
    <trip id="veh114" type="veh_passenger" depart="391.98" departLane="best" from="751872167#0" to="337138430#0"/>
    <trip id="veh115" type="veh_passenger" depart="395.42" departLane="best" from="308054423#9" to="937541343#9"/>
    <trip id="veh116" type="veh_passenger" depart="398.86" departLane="best" from="312550762#0" to="-1029579555"/>
    <trip id="veh117" type="veh_passenger" depart="402.30" departLane="best" departSpeed="max" from="644418441#0" to="1026652639#4"/>
    <trip id="veh118" type="veh_passenger" depart="405.74" departLane="best" from="-321958786#1" to="-337138425#1"/>
    <trip id="veh119" type="veh_passenger" depart="409.17" departLane="best" from="-312550764#1" to="1279838364"/>
    <trip id="veh121" type="veh_passenger" depart="416.05" departLane="best" from="337354539#2" to="-937527315#12"/>
    <trip id="veh122" type="veh_passenger" depart="419.49" departLane="best" from="310762325#1" to="-937527330#3"/>
    <trip id="veh123" type="veh_passenger" depart="422.93" departLane="best" departSpeed="max" from="785842362#0" to="-312886961"/>
    <trip id="veh124" type="veh_passenger" depart="426.37" departLane="best" from="1031928627#3-AddedOnRampEdge" to="1023641969#10"/>
    <trip id="veh125" type="veh_passenger" depart="429.80" departLane="best" from="1030599303#0" to="547357073#1"/>
    <trip id="veh126" type="veh_passenger" depart="433.24" departLane="best" from="310762325#1" to="-937527330#3"/>
    <trip id="veh128" type="veh_passenger" depart="440.12" departLane="best" from="1031928627#4" to="-1029579556#0"/>
    <trip id="veh129" type="veh_passenger" depart="443.56" departLane="best" departSpeed="max" from="-1279838364" to="937527313#2"/>
    <trip id="veh130" type="veh_passenger" depart="447.00" departLane="best" from="937527314" to="1279838354"/>
    <trip id="veh131" type="veh_passenger" depart="450.43" departLane="best" from="751872167#0" to="308054420#5"/>
    <trip id="veh132" type="veh_passenger" depart="453.87" departLane="best" departSpeed="max" from="-337138423#1" to="-337138429#0"/>
    <trip id="veh133" type="veh_passenger" depart="457.31" departLane="best" departSpeed="max" from="-983563022#1" to="-937527315#12"/>
    <trip id="veh135" type="veh_passenger" depart="464.19" departLane="best" from="1031928637#0" to="-937527315#3"/>
    <trip id="veh136" type="veh_passenger" depart="467.63" departLane="best" departSpeed="max" from="547357074#0" to="937527313#2"/>
    <trip id="veh137" type="veh_passenger" depart="471.07" departLane="best" from="1031928627#2" to="-312550764#1"/>
    <trip id="veh138" type="veh_passenger" depart="474.50" departLane="best" departSpeed="max" from="-337138424#1" to="937527316#8"/>
    <trip id="veh139" type="veh_passenger" depart="477.94" departLane="best" departSpeed="max" from="785842362#0" to="937541343#3"/>
    <trip id="veh140" type="veh_passenger" depart="481.38" departLane="best" departSpeed="max" from="57009975#0" to="937527313#1"/>
    <trip id="veh142" type="veh_passenger" depart="488.26" departLane="best" from="1026755238#2" to="937527316#8"/>
    <trip id="veh144" type="veh_passenger" depart="495.13" departLane="best" departSpeed="max" from="57009975#0" to="-937542077"/>
    <trip id="veh146" type="veh_passenger" depart="502.01" departLane="best" departSpeed="max" from="785842362#0" to="785842362#1"/>
    <trip id="veh147" type="veh_passenger" depart="505.45" departLane="best" from="-937527313#0" to="54818904#2"/>
    <trip id="veh148" type="veh_passenger" depart="508.89" departLane="best" departSpeed="max" from="1031928629#0" to="1026755234#5"/>
    <trip id="veh149" type="veh_passenger" depart="512.33" departLane="best" from="54818904#2" to="937527316#3"/>
    <trip id="veh151" type="veh_passenger" depart="519.20" departLane="best" departSpeed="max" from="310762330#0" to="1031928627#3-AddedOffRampEdge"/>
    <trip id="veh152" type="veh_passenger" depart="522.64" departLane="best" from="937541343#3" to="1229018645#5"/>
    <trip id="veh153" type="veh_passenger" depart="526.08" departLane="best" from="-937527316#6" to="337138425#1"/>
    <trip id="veh154" type="veh_passenger" depart="529.52" departLane="best" from="937527330#3" to="-644418441#0"/>
    <trip id="veh155" type="veh_passenger" depart="532.96" departLane="best" from="-312550764#2" to="54818904#1"/>
    <trip id="veh157" type="veh_passenger" depart="539.83" departLane="best" from="308054423#3" to="1229018624"/>
    <trip id="veh159" type="veh_passenger" depart="546.71" departLane="best" from="-937527315#6" to="337354539#0"/>
    <trip id="veh160" type="veh_passenger" depart="550.15" departLane="best" from="-1029579556#0" to="937527316#5"/>
    <trip id="veh161" type="veh_passenger" depart="553.59" departLane="best" from="1229018634" to="339271943"/>
    <trip id="veh162" type="veh_passenger" depart="557.03" departLane="best" departSpeed="max" from="359327993" to="337138424#1"/>
    <trip id="veh163" type="veh_passenger" depart="560.46" departLane="best" departSpeed="max" from="1029579555" to="-310762330#0"/>
    <trip id="veh164" type="veh_passenger" depart="563.90" departLane="best" from="-312550764#6" to="1029410063#2"/>
    <trip id="veh165" type="veh_passenger" depart="567.34" departLane="best" from="983563029#0" to="751872167#1"/>
    <trip id="veh166" type="veh_passenger" depart="570.78" departLane="best" departSpeed="max" from="-983563022#1" to="1031928627#3-AddedOnRampEdge"/>
    <trip id="veh168" type="veh_passenger" depart="577.66" departLane="best" departSpeed="max" from="-314215531#2" to="1031928627#5-AddedOffRampEdge"/>
    <trip id="veh169" type="veh_passenger" depart="581.10" departLane="best" from="-937527316#7" to="337138424#1"/>
    <trip id="veh170" type="veh_passenger" depart="584.53" departLane="best" from="937527314" to="310762330#4"/>
    <trip id="veh171" type="veh_passenger" depart="587.97" departLane="best" from="-937527330#2" to="1279838354"/>
    <trip id="veh172" type="veh_passenger" depart="591.41" departLane="best" from="-1029579556#0" to="1026652639#2"/>
    <trip id="veh173" type="veh_passenger" depart="594.85" departLane="best" from="1031928627#5" to="308054420#4"/>
    <trip id="veh174" type="veh_passenger" depart="598.29" departLane="best" from="312550762#0" to="308054420#1"/>
    <trip id="veh175" type="veh_passenger" depart="601.73" departLane="best" from="1031928627#6" to="-937527315#5"/>
    <trip id="veh176" type="veh_passenger" depart="605.16" departLane="best" from="1031928629#2" to="-937527315#13"/>
    <trip id="veh177" type="veh_passenger" depart="608.60" departLane="best" from="54818904#2" to="-57009975#0"/>
    <trip id="veh178" type="veh_passenger" depart="612.04" departLane="best" from="-1309425621#0" to="1229018629"/>
    <trip id="veh179" type="veh_passenger" depart="615.48" departLane="best" departSpeed="max" from="310762325#0" to="1029410063#2"/>
    <trip id="veh180" type="veh_passenger" depart="618.92" departLane="best" departSpeed="max" from="644418441#0" to="359327007-AddedOnRampEdge"/>
    <trip id="veh181" type="veh_passenger" depart="622.36" departLane="best" from="-337354539#3" to="-1229018624"/>
    <trip id="veh183" type="veh_passenger" depart="629.23" departLane="best" departSpeed="max" from="785842362#0" to="-310762330#1"/>
    <trip id="veh184" type="veh_passenger" depart="632.67" departLane="best" from="1031928627#3-AddedOffRampEdge" to="-312550764#6"/>
    <trip id="veh186" type="veh_passenger" depart="639.55" departLane="best" from="312550764#0" to="-1029579555"/>
    <trip id="veh187" type="veh_passenger" depart="642.99" departLane="best" departSpeed="max" from="359327993" to="547357073#0"/>
    <trip id="veh188" type="veh_passenger" depart="646.43" departLane="best" from="-312550764#1" to="1031928627#6"/>
    <trip id="veh189" type="veh_passenger" depart="649.86" departLane="best" departSpeed="max" from="-337138425#3" to="937527330#1"/>
    <trip id="veh191" type="veh_passenger" depart="656.74" departLane="best" from="-937527315#3" to="782887373#0"/>
    <trip id="veh192" type="veh_passenger" depart="660.18" departLane="best" departSpeed="max" from="1031928629#0" to="54818722#2"/>
    <trip id="veh193" type="veh_passenger" depart="663.62" departLane="best" from="321958786#0" to="937541343#9"/>
    <trip id="veh194" type="veh_passenger" depart="667.06" departLane="best" departSpeed="max" from="308054423#0" to="-937527327"/>
    <trip id="veh195" type="veh_passenger" depart="670.49" departLane="best" from="785842362#2" to="-310762330#1"/>
    <trip id="veh196" type="veh_passenger" depart="673.93" departLane="best" from="337354539#3" to="1212685515#3"/>
    <trip id="veh197" type="veh_passenger" depart="677.37" departLane="best" departSpeed="max" from="644418442#0" to="1279838354"/>
    <trip id="veh198" type="veh_passenger" depart="680.81" departLane="best" from="1031928637#0" to="359327007"/>
    <trip id="veh199" type="veh_passenger" depart="684.25" departLane="best" from="1031928629#2" to="-937527329"/>
    <trip id="veh200" type="veh_passenger" depart="687.69" departLane="best" from="-937527315#2" to="314215531#2"/>
    <trip id="veh201" type="veh_passenger" depart="691.13" departLane="best" from="368759103#0" to="1229018629"/>
    <trip id="veh202" type="veh_passenger" depart="694.56" departLane="best" departSpeed="max" from="310762325#0" to="1023641969#10"/>
    <trip id="veh203" type="veh_passenger" depart="698.00" departLane="best" from="-937527316#7" to="1026766572"/>
    <trip id="veh204" type="veh_passenger" depart="701.44" departLane="best" from="1229018635#0" to="-337138430#0"/>
    <trip id="veh205" type="veh_passenger" depart="704.88" departLane="best" departSpeed="max" from="-937527313#2" to="337138427"/>
    <trip id="veh206" type="veh_passenger" depart="708.32" departLane="best" from="337138429#1" to="-310762330#0"/>
    <trip id="veh207" type="veh_passenger" depart="711.76" departLane="best" from="1031928627#2" to="1279838354"/>
    <trip id="veh208" type="veh_passenger" depart="715.19" departLane="best" from="1031928627#3-AddedOffRampEdge" to="-937527315#2"/>
    <trip id="veh209" type="veh_passenger" depart="718.63" departLane="best" from="1031928627#3-AddedOnRampEdge" to="937527315#3"/>
    <trip id="veh210" type="veh_passenger" depart="722.07" departLane="best" departSpeed="max" from="308054423#0" to="337138428#0"/>
    <trip id="veh211" type="veh_passenger" depart="725.51" departLane="best" departSpeed="max" from="785842362#0" to="368759103#3"/>
    <trip id="veh214" type="veh_passenger" depart="735.82" departLane="best" departSpeed="max" from="785842362#0" to="937527328#3"/>
    <trip id="veh215" type="veh_passenger" depart="739.26" departLane="best" from="1031928627#3-AddedOnRampEdge" to="359327007-AddedOnRampEdge"/>
    <trip id="veh217" type="veh_passenger" depart="746.14" departLane="best" from="-57009975#1" to="-937527315#9"/>
    <trip id="veh218" type="veh_passenger" depart="749.58" departLane="best" from="1031928627#5-AddedOffRampEdge" to="-1229018635#3"/>
    <trip id="veh219" type="veh_passenger" depart="753.02" departLane="best" from="1026755238#1" to="337138425#0"/>
    <trip id="veh221" type="veh_passenger" depart="759.89" departLane="best" departSpeed="max" from="1031928629#0" to="-337138429#0"/>
    <trip id="veh222" type="veh_passenger" depart="763.33" departLane="best" departSpeed="max" from="310762325#0" to="-1229018635#2"/>
    <trip id="veh223" type="veh_passenger" depart="766.77" departLane="best" departSpeed="max" from="1030743544" to="272514054"/>
    <trip id="veh225" type="veh_passenger" depart="773.65" departLane="best" from="-1229018645#4" to="1030743540#1-AddedOnRampEdge"/>
    <trip id="veh226" type="veh_passenger" depart="777.09" departLane="best" departSpeed="max" from="-547357074#1" to="1029410062#1-AddedOnRampEdge"/>
    <trip id="veh227" type="veh_passenger" depart="780.52" departLane="best" from="359327993-AddedOffRampEdge" to="1030743540#1-AddedOnRampEdge"/>
    <trip id="veh228" type="veh_passenger" depart="783.96" departLane="best" departSpeed="max" from="359327993" to="751872167#1"/>
    <trip id="veh230" type="veh_passenger" depart="790.84" departLane="best" from="983563029#0" to="1030743537#0"/>
    <trip id="veh231" type="veh_passenger" depart="794.28" departLane="best" from="310762330#2" to="547357074#1"/>
    <trip id="veh234" type="veh_passenger" depart="804.59" departLane="best" departSpeed="max" from="-314215531#2" to="337138424#1"/>
    <trip id="veh235" type="veh_passenger" depart="808.03" departLane="best" departSpeed="max" from="337138429#0" to="1224960562"/>
    <trip id="veh237" type="veh_passenger" depart="814.91" departLane="best" departSpeed="max" from="359327993" to="-337138425#1"/>
    <trip id="veh238" type="veh_passenger" depart="818.35" departLane="best" departSpeed="max" from="644418441#0" to="937541343#1"/>
    <trip id="veh239" type="veh_passenger" depart="821.79" departLane="best" departSpeed="max" from="-983563022#1" to="337138424#1"/>
    <trip id="veh240" type="veh_passenger" depart="825.22" departLane="best" from="937527326" to="1031928627#3"/>
    <trip id="veh241" type="veh_passenger" depart="828.66" departLane="best" from="337354539#0" to="-310762330#4"/>
    <trip id="veh242" type="veh_passenger" depart="832.10" departLane="best" from="337138427" to="312550764#4"/>
    <trip id="veh243" type="veh_passenger" depart="835.54" departLane="best" from="-310762330#4" to="547357073#1"/>
    <trip id="veh244" type="veh_passenger" depart="838.98" departLane="best" departSpeed="max" from="785842362#0" to="308054423#9"/>
    <trip id="veh245" type="veh_passenger" depart="842.42" departLane="best" from="-314215531#1" to="937541343#7"/>
    <trip id="veh246" type="veh_passenger" depart="845.85" departLane="best" departSpeed="max" from="547357074#0" to="-1029579556#0"/>
    <trip id="veh247" type="veh_passenger" depart="849.29" departLane="best" from="1031928627#4" to="1030743540#1"/>
    <trip id="veh248" type="veh_passenger" depart="852.73" departLane="best" departSpeed="max" from="1035131044#0" to="1029410063#3"/>
    <trip id="veh249" type="veh_passenger" depart="856.17" departLane="best" departSpeed="max" from="785842362#0" to="937541343#6"/>
    <trip id="veh250" type="veh_passenger" depart="859.61" departLane="best" from="310762325#1" to="751872167#0"/>
    <trip id="veh251" type="veh_passenger" depart="863.05" departLane="best" from="-337138429#7" to="54818904#1"/>
    <trip id="veh253" type="veh_passenger" depart="869.92" departLane="best" from="-937527316#6" to="54818722#2"/>
    <trip id="veh255" type="veh_passenger" depart="876.80" departLane="best" from="1031928627#5-AddedOffRampEdge" to="359327007"/>
    <trip id="veh256" type="veh_passenger" depart="880.24" departLane="best" from="-937527316#5" to="782887373#1"/>
    <trip id="veh257" type="veh_passenger" depart="883.68" departLane="best" departSpeed="max" from="644418442#0" to="312550764#3"/>
    <trip id="veh258" type="veh_passenger" depart="887.12" departLane="best" from="785842362#1" to="-937527322"/>
    <trip id="veh260" type="veh_passenger" depart="893.99" departLane="best" departSpeed="max" from="785842362#0" to="-644418441#0"/>
    <trip id="veh261" type="veh_passenger" depart="897.43" departLane="best" departSpeed="max" from="-547357074#1" to="54818722#2"/>
    <trip id="veh262" type="veh_passenger" depart="900.87" departLane="best" from="1029410062#0" to="937527313#0"/>
    <trip id="veh263" type="veh_passenger" depart="904.31" departLane="best" departSpeed="max" from="337138429#0" to="1023641969#10"/>
    <trip id="veh265" type="veh_passenger" depart="911.19" departLane="best" from="-1309425621#0" to="339271943"/>
    <trip id="veh267" type="veh_passenger" depart="918.06" departLane="best" from="337138427" to="-321958786#0"/>
    <trip id="veh268" type="veh_passenger" depart="921.50" departLane="best" from="1031928638#2" to="54818722#1"/>